                                  MODFLOW-NWT-SWR1 
      U.S. GEOLOGICAL SURVEY MODULAR FINITE-DIFFERENCE GROUNDWATER-FLOW MODEL
                            VERSION 1.2.0 03/01/2020
                    BASED ON MODFLOW-2005 VERSION 1.12.00 02/03/2017

 LIST FILE: etdemand_sup.list
                         UNIT    2

 OPENING etdemand_sup.dis
 FILE TYPE:DIS   UNIT   11   STATUS:OLD    
 FORMAT:FORMATTED              ACCESS:SEQUENTIAL          

 OPENING etdemand_sup.bas
 FILE TYPE:BAS6   UNIT   13   STATUS:OLD    
 FORMAT:FORMATTED              ACCESS:SEQUENTIAL          

 OPENING etdemand_sup.upw
 FILE TYPE:UPW   UNIT   31   STATUS:OLD    
 FORMAT:FORMATTED              ACCESS:SEQUENTIAL          

 OPENING etdemand_sup.sfr
 FILE TYPE:SFR   UNIT   17   STATUS:OLD    
 FORMAT:FORMATTED              ACCESS:SEQUENTIAL          

 OPENING etdemand_sup.gage
 FILE TYPE:GAGE   UNIT  120   STATUS:OLD    
 FORMAT:FORMATTED              ACCESS:SEQUENTIAL          

 OPENING etdemand_sup.uzf
 FILE TYPE:UZF   UNIT   19   STATUS:OLD    
 FORMAT:FORMATTED              ACCESS:SEQUENTIAL          

 OPENING etdemand_sup.oc
 FILE TYPE:OC   UNIT   14   STATUS:OLD    
 FORMAT:FORMATTED              ACCESS:SEQUENTIAL          

 OPENING etdemand_sup.nwt
 FILE TYPE:NWT   UNIT   32   STATUS:OLD    
 FORMAT:FORMATTED              ACCESS:SEQUENTIAL          

 OPENING etdemand_sup.ag
 FILE TYPE:AG   UNIT   69   STATUS:OLD    
 FORMAT:FORMATTED              ACCESS:SEQUENTIAL          

 OPENING etdemand_sup.cbc
 FILE TYPE:DATA(BINARY)   UNIT   52   STATUS:REPLACE
 FORMAT:BINARY                 ACCESS:SEQUENTIAL          

 OPENING gage11.txt
 FILE TYPE:DATA   UNIT   55   STATUS:UNKNOWN
 FORMAT:FORMATTED              ACCESS:SEQUENTIAL          

 OPENING gage12.txt
 FILE TYPE:DATA   UNIT   56   STATUS:UNKNOWN
 FORMAT:FORMATTED              ACCESS:SEQUENTIAL          

 OPENING etdemand_sup_gage10.txt
 FILE TYPE:DATA   UNIT   57   STATUS:UNKNOWN
 FORMAT:FORMATTED              ACCESS:SEQUENTIAL          

 OPENING etdemand_sup.hds
 FILE TYPE:DATA(BINARY)   UNIT   51   STATUS:REPLACE
 FORMAT:BINARY                 ACCESS:SEQUENTIAL          

 OPENING etdemand_sup.diversion11.txt
 FILE TYPE:DATA   UNIT   53   STATUS:UNKNOWN
 FORMAT:FORMATTED              ACCESS:SEQUENTIAL          

 OPENING etdemand_sup.diversion12.txt
 FILE TYPE:DATA   UNIT   54   STATUS:UNKNOWN
 FORMAT:FORMATTED              ACCESS:SEQUENTIAL          

 BAS -- BASIC PACKAGE, VERSION 1.2.0, 3/01/2020 INPUT READ FROM UNIT   13
 
 MODFLOW was compiled using mixed precision
 Precision of REAL variables:           6
 Precision of DOUBLE PRECISION variables:          15

 DISCRETIZATION INPUT DATA READ FROM UNIT   11
 # DIS package for MODFLOW-NWT generated by Flopy 3.3.6
    1 LAYERS        10 ROWS        10 COLUMNS
   12 STRESS PERIOD(S) IN SIMULATION
 MODEL TIME UNIT IS DAYS
 MODEL LENGTH UNIT IS METERS
  Confining bed flag for each layer:
   0

                     DELR =   63.6000    

                     DELC =   63.6000    

 TOP ELEVATION OF LAYER 1 =   100.000    

   MODEL LAYER BOTTOM EL. =   0.00000     FOR LAYER   1


 STRESS PERIOD     LENGTH       TIME STEPS     MULTIPLIER FOR DELT    SS FLAG
 ----------------------------------------------------------------------------
        1         31.00000         31                    1.000         TR
        2         28.00000         28                    1.000         TR
        3         31.00000         31                    1.000         TR
        4         30.00000         30                    1.000         TR
        5         31.00000         31                    1.000         TR
        6         30.00000         30                    1.000         TR
        7         31.00000         31                    1.000         TR
        8         31.00000         31                    1.000         TR
        9         30.00000         30                    1.000         TR
       10         31.00000         31                    1.000         TR
       11         30.00000         30                    1.000         TR
       12         31.00000         31                    1.000         TR

 TRANSIENT SIMULATION



 
 # BAS6 package for MODFLOW-NWT generated by Flopy 3.3.6                         
 THE FREE FORMAT OPTION HAS BEEN SELECTED



                     BOUNDARY ARRAY FOR LAYER   1
 READING ON UNIT   13 WITH FORMAT: (10I10)             

 AQUIFER HEAD WILL BE SET TO  -999.99     AT ALL NO-FLOW NODES (IBOUND=0).



                       INITIAL HEAD FOR LAYER   1
 READING ON UNIT   13 WITH FORMAT: (10E15.6)           
 # OC package for MODFLOW-NWT generated by Flopy 3.3.6

 OUTPUT CONTROL IS SPECIFIED ONLY AT TIME STEPS FOR WHICH OUTPUT IS DESIRED
 COMPACT CELL-BY-CELL BUDGET FILES WILL BE WRITTEN
 AUXILIARY DATA WILL BE SAVED IN CELL-BY-CELL BUDGET FILES
 HEAD PRINT FORMAT CODE IS   0    DRAWDOWN PRINT FORMAT CODE IS   0
 HEADS WILL BE SAVED ON UNIT   51    DRAWDOWNS WILL BE SAVED ON UNIT    0
 # NWT package for MODFLOW-NWT generated by Flopy 3.3.6

 NWT1 -- Newton Solver, VERSION 1.2.0, 3/01/2020
         INPUT READ FROM UNIT 32

 COMPLEX OPTION:
 DEFAULT SOLVER INPUT VALUES REFLECT STRONGLY NONLINEAR MODEL
 ***GMRES linear solver will be used***
 
   CONVERGENCE CRITERION OF   0.200000E-01 FOR HEAD SOLUTION
   AND A TOLERANCE OF   0.500000E+02 FOR FLOW SOLUTION AND 
   A MAXIMUM OF   100 OUTER ITERATIONS. 


   D-B-D REDUCTION FACTOR OF    0.850000E+00 AND 
   A D-B-D INCREASE FACTOR OF    0.100000E-04 AND 
   A D-B-D RELAXATION OF    0.000000E+00 AND 
   A MOMENTUM FACTOR OF    0.100000E+00 .


   BACKTRACKING IS ACTIVE 
   THE MAXIMUM NUMBER OF BACKTRACKS IS    50 AND 
   THE BACKTRACKING TOLERANCE IS    0.110000E+01 AND
   THE BACKTRACKING REDUCTION FACTOR IS    0.700000E+00

 GMRES -- LINEAR SOLUTION BY GMRES PACKAGE 
     adapted for HYDROTHERM by Kipp and others (2008)
     using software originally developed by Saad (1990) 32
     using algorithms described in Saad (2003)

 UPW1 -- UPSTREAM WEIGHTING FLOW PACKAGE, VERSION 1.2.0, 3/01/2020
         INPUT READ FROM UNIT 31

 # UPW package for MODFLOW-NWT generated by Flopy 3.3.6
 CELL-BY-CELL FLOWS WILL BE SAVED ON UNIT   52
 No named parameters

   LAYER FLAGS:
 LAYER       LAYTYP          LAYAVG    CHANI           LAYVKA           LAYWET
 ---------------------------------------------------------------------------
    1             1             0     1.000E+00             0             0

   INTERPRETATION OF LAYER FLAGS:
                        INTERBLOCK     HORIZONTAL    DATA IN
         LAYER TYPE   TRANSMISSIVITY   ANISOTROPY   ARRAY VKA   WETTABILITY
 LAYER   (LAYTYP)        (LAYAVG)      (CHANI)     (LAYVKA)       (LAYWET)
 ---------------------------------------------------------------------------
    1   CONVERTIBLE      HARMONIC     1.000E+00    VERTICAL K  NON-WETTABLE

    HYD. COND. ALONG ROWS =   1.00000     FOR LAYER   1

      VERTICAL HYD. COND. =   1.00000     FOR LAYER   1

         SPECIFIC STORAGE =  1.000000E-05 FOR LAYER   1

           SPECIFIC YIELD =  0.150000     FOR LAYER   1

 SFR7 -- STREAMFLOW ROUTING PACKAGE, VERSION 1.0.5, 2012-04-05
         INPUT READ FROM UNIT  17
 # SFR package for MODFLOW-NWT generated by Flopy 3.3.6
 No named parameters


 NUMBER OF STREAM REACHES IS   12

 NUMBER OF STREAM SEGMENTS IS   12

 NUMBER OF STREAM PARAMETERS IS    0

 NUMBER OF STREAM SEGMENTS DEFINED USING PARAMETERS IS              0

 MAXIMUM ERROR FOR STREAM LEAKAGE RATES IS  1.00E-04

 CONSTANT FOR MANNINGS EQUATION IS  8.6400E+04



 FLOW TO AND FROM GROUND WATER FOR EACH STREAM REACH WILL BE SAVED ON UNIT   52


   STREAM NETWORK DESCRIPTION: 

   LAYER    ROW    COL   SEGMENT   REACH     LENGTH
                          NUMBER   NUMBER    IN CELL        
   --------------------------------------------------
      1      1      8       1        1    1.0000E+02
      1      2      8       2        1    1.0000E+02
      1      3      8       3        1    1.0000E+02
      1      4      8       4        1    1.0000E+02
      1      5      8       5        1    1.0000E+02
      1      6      8       6        1    1.0000E+02
      1      7      8       7        1    1.0000E+02
      1      8      8       8        1    1.0000E+02
      1      9      8       9        1    1.0000E+02
      1     10      8      10        1    1.0000E+02
      1      3      7      11        1    1.0000E+02
      1      5      7      12        1    1.0000E+02




 UZF1 -- UNSATURATED FLOW PACKAGE, VERSION 1.5, 09/10/2019
         INPUT READ FROM UNIT 19
 # UZF package for MODFLOW-NWT generated by Flopy 3.3.6
 No named parameters

 PROCESSING UZF OPTIONS
 
 
 RESIDUAL WATER CONTENT (THTR) WILL BE 
READ AND USED FOR THE FIRST TRANSIENT STRESS 
PERIOD
 
 
 INITIAL WATER CONTENT (THTI) WILL BE 
READ FOR THE FIRST SS OR TR STRESS PERIOD
 

 END PROCESSING UZF OPTIONS



            AREAL EXTENT OF UZ FLOW
 READING ON UNIT   19 WITH FORMAT: (10I10)             
 OPTION 1 -- RECHARGE IN UZF TO TOP LAYER ONLY 

     SATURATED VERTICAL K =   8.64000    

     BROOKS-COREY EPSILON =   5.00000    

  SATURATED WATER CONTENT =  0.350000    

   RESIDUAL WATER CONTENT =  5.000000E-02

    INITIAL WATER CONTENT =  8.000000E-02



   3 GAGING STATIONS WERE SPECIFIED.
     (Lakes are identified by a negative value of the Lake Number)
     RECORDS WILL BE WRITTEN TO SEPARATE OUTPUT FILES REPRESENTED BY FOLLOWING UNIT NUMBERS:

 Stream Gages:
  GAGE #   SEGMENT   REACH   UNIT   OUTTYPE
       1      11       1      55       0
       2      12       1      56       5
       3      10       1      57       0





 AG -- AG PACKAGE FOR NWT VERSION 1.1.3,  8/01/2017 INPUT READ FROM UNIT   69
 # AG package for MODFLOW-NWT generated by Flopy 3.3.6

 PROCESSING AG OPTIONS
 
 OPTION TO APPLY SURFACE WATER AS IRRIGATION IS ACTIVE. DIVERTED SURFACE WATER WILL BE APPLIED TO          2 CELLS/RHUS.
 
 
 OPTION TO APPLY PUMPED WATER AS IRRIGATION IS ACTIVE. PUMPED IRRIGATION WATER WILL BE APPLIED TO          2 CELLS/RHUS.
 
 
 OPTION TO PUMP SUPPLEMENTARY WATER FOR SURFACE DIVERSION SHORTFALL IS ACTIVATED.  A TOTAL OF             2 SUPPLEMENTAL WELLS ARE ACTIVE
 
 
 THE MAXIMUM NUMBER OF WELLS FOR SUPPLEMENTING DIVERSIONS OR APPLYING IRRIGATION IS          2 WELLS.
 
 
 AGRICULTURAL DEMANDS WILL BE CALCULATED USING ET DEFICIT
 
 
  SURFACE WATER IRRIGATION, POTENTIAL AND ACTUAL ET WILL BE SAVED TO TIMES SERIES OUTPUT FILES.
 
 
  UNFORMATTED CELL BY CELL RATES FOR SUP AND IRR WELLS WILL BE SAVED TO FILE UNIT NUMBER         52
 

 END PROCESSING AG OPTIONS
 # ag time series

 PROCESSING TIME SERIES

 FINISHED READING TIME SERIES
 A total number of          2 AG output time series files were activated for SURFACE WATER 
 A total number of          0 AG output time series files were activated for GROUNDWATER 
 A total number of          0 AG output time series files were activated for SURFACE WATER ET
 A total number of          0 AG output time series files were activated for GROUNDWATER ET
1
                            STRESS PERIOD NO.    1, LENGTH =   31.00000    
                            -----------------------------------------------

                              NUMBER OF TIME STEPS =    31

                               MULTIPLIER FOR DELT =     1.000

                            INITIAL TIME STEP SIZE =   1.000000    



 CLASSIFICATION & COUNT OF STREAM SEGMENTS BASED ON SOURCE OF INFLOW:

                HEADWATER     DIVERSION     RECEIVES TRIBUTARY FLOW
                ---------     ---------     -----------------------
                     1              2               9



                    INPUT DATA FOR EACH STREAM SEGMENT
 ---------------------------------------------------------------------------------------------

 SEGMENT    SEG.     INFLOW   OVERLAND   STREAM    STREAM   ICALC  OUTFLOW  DIVERSION PRIORITY
    NO.    LENGTH     RATE     RUNOFF      ET       PPT.    METH.  TO SEG.  FROM SEG.    NO.

      1  1.000E+02 5.000E+01 0.000E+00 0.000E+00 0.000E+00    1        2        0        0
      2  1.000E+02 0.000E+00 0.000E+00 0.000E+00 0.000E+00    1        3        0        0
      3  1.000E+02 0.000E+00 0.000E+00 0.000E+00 0.000E+00    1        4        0        0
      4  1.000E+02 0.000E+00 0.000E+00 0.000E+00 0.000E+00    1        5        0        0
      5  1.000E+02 0.000E+00 0.000E+00 0.000E+00 0.000E+00    1        6        0        0
      6  1.000E+02 0.000E+00 0.000E+00 0.000E+00 0.000E+00    1        7        0        0
      7  1.000E+02 0.000E+00 0.000E+00 0.000E+00 0.000E+00    1        8        0        0
      8  1.000E+02 0.000E+00 0.000E+00 0.000E+00 0.000E+00    1        9        0        0
      9  1.000E+02 0.000E+00 0.000E+00 0.000E+00 0.000E+00    1       10        0        0
     10  1.000E+02 0.000E+00 0.000E+00 0.000E+00 0.000E+00    1        0        0        0
     11  1.000E+02 2.000E+01 0.000E+00 0.000E+00 0.000E+00    1        0        3        0
     12  1.000E+02 1.000E+01 0.000E+00 0.000E+00 0.000E+00    1        0        5        0


         STREAMBED PROPERTIES AND STREAM DIMENSIONS

 SEGMENT     BED HYD. COND.      BED THICKNESS     ELEV.-TOP OF BED     WIDTH OF STREAM     DEPTH OF STREAM    STREAM ROUGHNESS
    No.     UPPER     LOWER     UPPER     LOWER     UPPER     LOWER     UPPER     LOWER     UPPER     LOWER   CHANNEL      BANK

     1  1.500E-05 1.500E-05 5.000E-01 5.000E-01 9.900E+01 9.898E+01 5.000E+00 5.000E+00                     3.000E-02
     2  1.500E-05 1.500E-05 5.000E-01 5.000E-01 9.898E+01 9.896E+01 5.000E+00 5.000E+00                     3.000E-02
     3  1.500E-05 1.500E-05 5.000E-01 5.000E-01 9.896E+01 9.894E+01 5.000E+00 5.000E+00                     3.000E-02
     4  1.500E-05 1.500E-05 5.000E-01 5.000E-01 9.894E+01 9.892E+01 5.000E+00 5.000E+00                     3.000E-02
     5  1.500E-05 1.500E-05 5.000E-01 5.000E-01 9.892E+01 9.890E+01 5.000E+00 5.000E+00                     3.000E-02
     6  1.500E-05 1.500E-05 5.000E-01 5.000E-01 9.890E+01 9.888E+01 5.000E+00 5.000E+00                     3.000E-02
     7  1.500E-05 1.500E-05 5.000E-01 5.000E-01 9.888E+01 9.886E+01 5.000E+00 5.000E+00                     3.000E-02
     8  1.500E-05 1.500E-05 5.000E-01 5.000E-01 9.886E+01 9.884E+01 5.000E+00 5.000E+00                     3.000E-02
     9  1.500E-05 1.500E-05 5.000E-01 5.000E-01 9.884E+01 9.882E+01 5.000E+00 5.000E+00                     3.000E-02
    10  1.500E-05 1.500E-05 5.000E-01 5.000E-01 9.882E+01 9.880E+01 5.000E+00 5.000E+00                     3.000E-02
    11  1.500E-05 1.500E-05 5.000E-01 5.000E-01 9.894E+01 9.892E+01 5.000E+00 5.000E+00                     3.000E-02
    12  1.500E-05 1.500E-05 5.000E-01 5.000E-01 9.890E+01 9.888E+01 5.000E+00 5.000E+00                     3.000E-02






            AREAL INFILTRATION RATE
 READING ON UNIT   19 WITH FORMAT: (10E15.6)           



                            ET RATE
 READING ON UNIT   19 WITH FORMAT: (10E15.6)           



                ET EXTINCTION DEPTH
 READING ON UNIT   19 WITH FORMAT: (10E15.6)           



           EXTINCTION WATER CONTENT
 READING ON UNIT   19 WITH FORMAT: (10E15.6)           
 # segment list for irrigation diversions

 PROCESSING SEGMENT LIST

 FINISHED READING SEGMENT LIST
 # ag well list

 PROCESSING WELL LIST

 LAYER   ROW   COL   MAX STRESS RATE         
 --------------------------------------------
      1      1      2      3      -50.00    
      2      1      6      5      -100.0    

 FINISHED READING WELL LIST

      2 WELLS

 PROCESSING AG STRESS PERIOD DATA
 # ag stress period data

 READING AG STRESS PERIOD DATA

 READING IRRIGATION SEGMENT

 READING IRRIGATION WELL

 READING SUPPLEMENTAL WELL

 END PROCESSING AG STRESS PERIOD DATA OPTIONS
 
 SOLVING FOR HEAD 

    ------------------------------------------------
       NWT REQUIRED            1 OUTER ITERATIONS 
       AND A TOTAL OF          2 INNER ITERATIONS.
    ------------------------------------------------

 OUTPUT CONTROL FOR STRESS PERIOD    1   TIME STEP    1
    SAVE HEAD FOR ALL LAYERS
    SAVE BUDGET
 UBDSV1 SAVING "         STORAGE" ON UNIT  52 AT TIME STEP  1, STRESS PERIOD   1
 UBDSV2 SAVING "   CONSTANT HEAD" ON UNIT  52 AT TIME STEP  1, STRESS PERIOD   1
 UBDSV1 SAVING "FLOW RIGHT FACE " ON UNIT  52 AT TIME STEP  1, STRESS PERIOD   1
 UBDSV1 SAVING "FLOW FRONT FACE " ON UNIT  52 AT TIME STEP  1, STRESS PERIOD   1
 UBDSV4 SAVING "  STREAM LEAKAGE" ON UNIT  52 AT TIME STEP  1, STRESS PERIOD   1



 UBUDSV SAVING "           GW ET" ON UNIT 52 AT TIME STEP  1, STRESS PERIOD    1
 UBUDSV SAVING "    UZF RECHARGE" ON UNIT 52 AT TIME STEP  1, STRESS PERIOD    1
 UBUDSV SAVING " SURFACE LEAKAGE" ON UNIT 52 AT TIME STEP  1, STRESS PERIOD    1
 UBUDSV SAVING "       HORT+DUNN" ON UNIT 52 AT TIME STEP  1, STRESS PERIOD    1
 UBUDSV SAVING "  STORAGE CHANGE" ON UNIT 52 AT TIME STEP  1, STRESS PERIOD    1
 UBDSV4 SAVING "           AG WE" ON UNIT  52 AT TIME STEP  1, STRESS PERIOD   1

 HEAD WILL BE SAVED ON UNIT   51 AT END OF TIME STEP    1, STRESS PERIOD    1
 
 SOLVING FOR HEAD 

    ------------------------------------------------
       NWT REQUIRED            1 OUTER ITERATIONS 
       AND A TOTAL OF          2 INNER ITERATIONS.
    ------------------------------------------------

 OUTPUT CONTROL FOR STRESS PERIOD    1   TIME STEP    2
    SAVE HEAD FOR ALL LAYERS
    SAVE BUDGET
 UBDSV1 SAVING "         STORAGE" ON UNIT  52 AT TIME STEP  2, STRESS PERIOD   1
 UBDSV2 SAVING "   CONSTANT HEAD" ON UNIT  52 AT TIME STEP  2, STRESS PERIOD   1
 UBDSV1 SAVING "FLOW RIGHT FACE " ON UNIT  52 AT TIME STEP  2, STRESS PERIOD   1
 UBDSV1 SAVING "FLOW FRONT FACE " ON UNIT  52 AT TIME STEP  2, STRESS PERIOD   1
 UBDSV4 SAVING "  STREAM LEAKAGE" ON UNIT  52 AT TIME STEP  2, STRESS PERIOD   1



 UBUDSV SAVING "           GW ET" ON UNIT 52 AT TIME STEP  2, STRESS PERIOD    1
 UBUDSV SAVING "    UZF RECHARGE" ON UNIT 52 AT TIME STEP  2, STRESS PERIOD    1
 UBUDSV SAVING " SURFACE LEAKAGE" ON UNIT 52 AT TIME STEP  2, STRESS PERIOD    1
 UBUDSV SAVING "       HORT+DUNN" ON UNIT 52 AT TIME STEP  2, STRESS PERIOD    1
 UBUDSV SAVING "  STORAGE CHANGE" ON UNIT 52 AT TIME STEP  2, STRESS PERIOD    1
 UBDSV4 SAVING "           AG WE" ON UNIT  52 AT TIME STEP  2, STRESS PERIOD   1

 HEAD WILL BE SAVED ON UNIT   51 AT END OF TIME STEP    2, STRESS PERIOD    1
 
 SOLVING FOR HEAD 

    ------------------------------------------------
       NWT REQUIRED            1 OUTER ITERATIONS 
       AND A TOTAL OF          2 INNER ITERATIONS.
    ------------------------------------------------

 OUTPUT CONTROL FOR STRESS PERIOD    1   TIME STEP    3
    SAVE HEAD FOR ALL LAYERS
    SAVE BUDGET
 UBDSV1 SAVING "         STORAGE" ON UNIT  52 AT TIME STEP  3, STRESS PERIOD   1
 UBDSV2 SAVING "   CONSTANT HEAD" ON UNIT  52 AT TIME STEP  3, STRESS PERIOD   1
 UBDSV1 SAVING "FLOW RIGHT FACE " ON UNIT  52 AT TIME STEP  3, STRESS PERIOD   1
 UBDSV1 SAVING "FLOW FRONT FACE " ON UNIT  52 AT TIME STEP  3, STRESS PERIOD   1
 UBDSV4 SAVING "  STREAM LEAKAGE" ON UNIT  52 AT TIME STEP  3, STRESS PERIOD   1



 UBUDSV SAVING "           GW ET" ON UNIT 52 AT TIME STEP  3, STRESS PERIOD    1
 UBUDSV SAVING "    UZF RECHARGE" ON UNIT 52 AT TIME STEP  3, STRESS PERIOD    1
 UBUDSV SAVING " SURFACE LEAKAGE" ON UNIT 52 AT TIME STEP  3, STRESS PERIOD    1
 UBUDSV SAVING "       HORT+DUNN" ON UNIT 52 AT TIME STEP  3, STRESS PERIOD    1
 UBUDSV SAVING "  STORAGE CHANGE" ON UNIT 52 AT TIME STEP  3, STRESS PERIOD    1
 UBDSV4 SAVING "           AG WE" ON UNIT  52 AT TIME STEP  3, STRESS PERIOD   1

 HEAD WILL BE SAVED ON UNIT   51 AT END OF TIME STEP    3, STRESS PERIOD    1
 
 SOLVING FOR HEAD 

    ------------------------------------------------
       NWT REQUIRED            1 OUTER ITERATIONS 
       AND A TOTAL OF          2 INNER ITERATIONS.
    ------------------------------------------------

 OUTPUT CONTROL FOR STRESS PERIOD    1   TIME STEP    4
    SAVE HEAD FOR ALL LAYERS
    SAVE BUDGET
 UBDSV1 SAVING "         STORAGE" ON UNIT  52 AT TIME STEP  4, STRESS PERIOD   1
 UBDSV2 SAVING "   CONSTANT HEAD" ON UNIT  52 AT TIME STEP  4, STRESS PERIOD   1
 UBDSV1 SAVING "FLOW RIGHT FACE " ON UNIT  52 AT TIME STEP  4, STRESS PERIOD   1
 UBDSV1 SAVING "FLOW FRONT FACE " ON UNIT  52 AT TIME STEP  4, STRESS PERIOD   1
 UBDSV4 SAVING "  STREAM LEAKAGE" ON UNIT  52 AT TIME STEP  4, STRESS PERIOD   1



 UBUDSV SAVING "           GW ET" ON UNIT 52 AT TIME STEP  4, STRESS PERIOD    1
 UBUDSV SAVING "    UZF RECHARGE" ON UNIT 52 AT TIME STEP  4, STRESS PERIOD    1
 UBUDSV SAVING " SURFACE LEAKAGE" ON UNIT 52 AT TIME STEP  4, STRESS PERIOD    1
 UBUDSV SAVING "       HORT+DUNN" ON UNIT 52 AT TIME STEP  4, STRESS PERIOD    1
 UBUDSV SAVING "  STORAGE CHANGE" ON UNIT 52 AT TIME STEP  4, STRESS PERIOD    1
 UBDSV4 SAVING "           AG WE" ON UNIT  52 AT TIME STEP  4, STRESS PERIOD   1

 HEAD WILL BE SAVED ON UNIT   51 AT END OF TIME STEP    4, STRESS PERIOD    1
 
 SOLVING FOR HEAD 

    ------------------------------------------------
       NWT REQUIRED            1 OUTER ITERATIONS 
       AND A TOTAL OF          2 INNER ITERATIONS.
    ------------------------------------------------

 OUTPUT CONTROL FOR STRESS PERIOD    1   TIME STEP    5
    SAVE HEAD FOR ALL LAYERS
    SAVE BUDGET
 UBDSV1 SAVING "         STORAGE" ON UNIT  52 AT TIME STEP  5, STRESS PERIOD   1
 UBDSV2 SAVING "   CONSTANT HEAD" ON UNIT  52 AT TIME STEP  5, STRESS PERIOD   1
 UBDSV1 SAVING "FLOW RIGHT FACE " ON UNIT  52 AT TIME STEP  5, STRESS PERIOD   1
 UBDSV1 SAVING "FLOW FRONT FACE " ON UNIT  52 AT TIME STEP  5, STRESS PERIOD   1
 UBDSV4 SAVING "  STREAM LEAKAGE" ON UNIT  52 AT TIME STEP  5, STRESS PERIOD   1



 UBUDSV SAVING "           GW ET" ON UNIT 52 AT TIME STEP  5, STRESS PERIOD    1
 UBUDSV SAVING "    UZF RECHARGE" ON UNIT 52 AT TIME STEP  5, STRESS PERIOD    1
 UBUDSV SAVING " SURFACE LEAKAGE" ON UNIT 52 AT TIME STEP  5, STRESS PERIOD    1
 UBUDSV SAVING "       HORT+DUNN" ON UNIT 52 AT TIME STEP  5, STRESS PERIOD    1
 UBUDSV SAVING "  STORAGE CHANGE" ON UNIT 52 AT TIME STEP  5, STRESS PERIOD    1
 UBDSV4 SAVING "           AG WE" ON UNIT  52 AT TIME STEP  5, STRESS PERIOD   1

 HEAD WILL BE SAVED ON UNIT   51 AT END OF TIME STEP    5, STRESS PERIOD    1
 
 SOLVING FOR HEAD 

    ------------------------------------------------
       NWT REQUIRED            1 OUTER ITERATIONS 
       AND A TOTAL OF          2 INNER ITERATIONS.
    ------------------------------------------------

 OUTPUT CONTROL FOR STRESS PERIOD    1   TIME STEP    6
    SAVE HEAD FOR ALL LAYERS
    SAVE BUDGET
 UBDSV1 SAVING "         STORAGE" ON UNIT  52 AT TIME STEP  6, STRESS PERIOD   1
 UBDSV2 SAVING "   CONSTANT HEAD" ON UNIT  52 AT TIME STEP  6, STRESS PERIOD   1
 UBDSV1 SAVING "FLOW RIGHT FACE " ON UNIT  52 AT TIME STEP  6, STRESS PERIOD   1
 UBDSV1 SAVING "FLOW FRONT FACE " ON UNIT  52 AT TIME STEP  6, STRESS PERIOD   1
 UBDSV4 SAVING "  STREAM LEAKAGE" ON UNIT  52 AT TIME STEP  6, STRESS PERIOD   1



 UBUDSV SAVING "           GW ET" ON UNIT 52 AT TIME STEP  6, STRESS PERIOD    1
 UBUDSV SAVING "    UZF RECHARGE" ON UNIT 52 AT TIME STEP  6, STRESS PERIOD    1
 UBUDSV SAVING " SURFACE LEAKAGE" ON UNIT 52 AT TIME STEP  6, STRESS PERIOD    1
 UBUDSV SAVING "       HORT+DUNN" ON UNIT 52 AT TIME STEP  6, STRESS PERIOD    1
 UBUDSV SAVING "  STORAGE CHANGE" ON UNIT 52 AT TIME STEP  6, STRESS PERIOD    1
 UBDSV4 SAVING "           AG WE" ON UNIT  52 AT TIME STEP  6, STRESS PERIOD   1

 HEAD WILL BE SAVED ON UNIT   51 AT END OF TIME STEP    6, STRESS PERIOD    1
 
 SOLVING FOR HEAD 

    ------------------------------------------------
       NWT REQUIRED            1 OUTER ITERATIONS 
       AND A TOTAL OF          2 INNER ITERATIONS.
    ------------------------------------------------

 OUTPUT CONTROL FOR STRESS PERIOD    1   TIME STEP    7
    SAVE HEAD FOR ALL LAYERS
    SAVE BUDGET
 UBDSV1 SAVING "         STORAGE" ON UNIT  52 AT TIME STEP  7, STRESS PERIOD   1
 UBDSV2 SAVING "   CONSTANT HEAD" ON UNIT  52 AT TIME STEP  7, STRESS PERIOD   1
 UBDSV1 SAVING "FLOW RIGHT FACE " ON UNIT  52 AT TIME STEP  7, STRESS PERIOD   1
 UBDSV1 SAVING "FLOW FRONT FACE " ON UNIT  52 AT TIME STEP  7, STRESS PERIOD   1
 UBDSV4 SAVING "  STREAM LEAKAGE" ON UNIT  52 AT TIME STEP  7, STRESS PERIOD   1



 UBUDSV SAVING "           GW ET" ON UNIT 52 AT TIME STEP  7, STRESS PERIOD    1
 UBUDSV SAVING "    UZF RECHARGE" ON UNIT 52 AT TIME STEP  7, STRESS PERIOD    1
 UBUDSV SAVING " SURFACE LEAKAGE" ON UNIT 52 AT TIME STEP  7, STRESS PERIOD    1
 UBUDSV SAVING "       HORT+DUNN" ON UNIT 52 AT TIME STEP  7, STRESS PERIOD    1
 UBUDSV SAVING "  STORAGE CHANGE" ON UNIT 52 AT TIME STEP  7, STRESS PERIOD    1
 UBDSV4 SAVING "           AG WE" ON UNIT  52 AT TIME STEP  7, STRESS PERIOD   1

 HEAD WILL BE SAVED ON UNIT   51 AT END OF TIME STEP    7, STRESS PERIOD    1
 
 SOLVING FOR HEAD 

    ------------------------------------------------
       NWT REQUIRED            1 OUTER ITERATIONS 
       AND A TOTAL OF          2 INNER ITERATIONS.
    ------------------------------------------------

 OUTPUT CONTROL FOR STRESS PERIOD    1   TIME STEP    8
    SAVE HEAD FOR ALL LAYERS
    SAVE BUDGET
 UBDSV1 SAVING "         STORAGE" ON UNIT  52 AT TIME STEP  8, STRESS PERIOD   1
 UBDSV2 SAVING "   CONSTANT HEAD" ON UNIT  52 AT TIME STEP  8, STRESS PERIOD   1
 UBDSV1 SAVING "FLOW RIGHT FACE " ON UNIT  52 AT TIME STEP  8, STRESS PERIOD   1
 UBDSV1 SAVING "FLOW FRONT FACE " ON UNIT  52 AT TIME STEP  8, STRESS PERIOD   1
 UBDSV4 SAVING "  STREAM LEAKAGE" ON UNIT  52 AT TIME STEP  8, STRESS PERIOD   1



 UBUDSV SAVING "           GW ET" ON UNIT 52 AT TIME STEP  8, STRESS PERIOD    1
 UBUDSV SAVING "    UZF RECHARGE" ON UNIT 52 AT TIME STEP  8, STRESS PERIOD    1
 UBUDSV SAVING " SURFACE LEAKAGE" ON UNIT 52 AT TIME STEP  8, STRESS PERIOD    1
 UBUDSV SAVING "       HORT+DUNN" ON UNIT 52 AT TIME STEP  8, STRESS PERIOD    1
 UBUDSV SAVING "  STORAGE CHANGE" ON UNIT 52 AT TIME STEP  8, STRESS PERIOD    1
 UBDSV4 SAVING "           AG WE" ON UNIT  52 AT TIME STEP  8, STRESS PERIOD   1

 HEAD WILL BE SAVED ON UNIT   51 AT END OF TIME STEP    8, STRESS PERIOD    1
 
 SOLVING FOR HEAD 

    ------------------------------------------------
       NWT REQUIRED            1 OUTER ITERATIONS 
       AND A TOTAL OF          2 INNER ITERATIONS.
    ------------------------------------------------

 OUTPUT CONTROL FOR STRESS PERIOD    1   TIME STEP    9
    SAVE HEAD FOR ALL LAYERS
    SAVE BUDGET
 UBDSV1 SAVING "         STORAGE" ON UNIT  52 AT TIME STEP  9, STRESS PERIOD   1
 UBDSV2 SAVING "   CONSTANT HEAD" ON UNIT  52 AT TIME STEP  9, STRESS PERIOD   1
 UBDSV1 SAVING "FLOW RIGHT FACE " ON UNIT  52 AT TIME STEP  9, STRESS PERIOD   1
 UBDSV1 SAVING "FLOW FRONT FACE " ON UNIT  52 AT TIME STEP  9, STRESS PERIOD   1
 UBDSV4 SAVING "  STREAM LEAKAGE" ON UNIT  52 AT TIME STEP  9, STRESS PERIOD   1



 UBUDSV SAVING "           GW ET" ON UNIT 52 AT TIME STEP  9, STRESS PERIOD    1
 UBUDSV SAVING "    UZF RECHARGE" ON UNIT 52 AT TIME STEP  9, STRESS PERIOD    1
 UBUDSV SAVING " SURFACE LEAKAGE" ON UNIT 52 AT TIME STEP  9, STRESS PERIOD    1
 UBUDSV SAVING "       HORT+DUNN" ON UNIT 52 AT TIME STEP  9, STRESS PERIOD    1
 UBUDSV SAVING "  STORAGE CHANGE" ON UNIT 52 AT TIME STEP  9, STRESS PERIOD    1
 UBDSV4 SAVING "           AG WE" ON UNIT  52 AT TIME STEP  9, STRESS PERIOD   1

 HEAD WILL BE SAVED ON UNIT   51 AT END OF TIME STEP    9, STRESS PERIOD    1
 
 SOLVING FOR HEAD 

    ------------------------------------------------
       NWT REQUIRED            1 OUTER ITERATIONS 
       AND A TOTAL OF          2 INNER ITERATIONS.
    ------------------------------------------------

 OUTPUT CONTROL FOR STRESS PERIOD    1   TIME STEP   10
    SAVE HEAD FOR ALL LAYERS
    SAVE BUDGET
 UBDSV1 SAVING "         STORAGE" ON UNIT  52 AT TIME STEP 10, STRESS PERIOD   1
 UBDSV2 SAVING "   CONSTANT HEAD" ON UNIT  52 AT TIME STEP 10, STRESS PERIOD   1
 UBDSV1 SAVING "FLOW RIGHT FACE " ON UNIT  52 AT TIME STEP 10, STRESS PERIOD   1
 UBDSV1 SAVING "FLOW FRONT FACE " ON UNIT  52 AT TIME STEP 10, STRESS PERIOD   1
 UBDSV4 SAVING "  STREAM LEAKAGE" ON UNIT  52 AT TIME STEP 10, STRESS PERIOD   1



 UBUDSV SAVING "           GW ET" ON UNIT 52 AT TIME STEP 10, STRESS PERIOD    1
 UBUDSV SAVING "    UZF RECHARGE" ON UNIT 52 AT TIME STEP 10, STRESS PERIOD    1
 UBUDSV SAVING " SURFACE LEAKAGE" ON UNIT 52 AT TIME STEP 10, STRESS PERIOD    1
 UBUDSV SAVING "       HORT+DUNN" ON UNIT 52 AT TIME STEP 10, STRESS PERIOD    1
 UBUDSV SAVING "  STORAGE CHANGE" ON UNIT 52 AT TIME STEP 10, STRESS PERIOD    1
 UBDSV4 SAVING "           AG WE" ON UNIT  52 AT TIME STEP 10, STRESS PERIOD   1

 HEAD WILL BE SAVED ON UNIT   51 AT END OF TIME STEP   10, STRESS PERIOD    1
 
 SOLVING FOR HEAD 

    ------------------------------------------------
       NWT REQUIRED            1 OUTER ITERATIONS 
       AND A TOTAL OF          2 INNER ITERATIONS.
    ------------------------------------------------

 OUTPUT CONTROL FOR STRESS PERIOD    1   TIME STEP   11
    SAVE HEAD FOR ALL LAYERS
    SAVE BUDGET
 UBDSV1 SAVING "         STORAGE" ON UNIT  52 AT TIME STEP 11, STRESS PERIOD   1
 UBDSV2 SAVING "   CONSTANT HEAD" ON UNIT  52 AT TIME STEP 11, STRESS PERIOD   1
 UBDSV1 SAVING "FLOW RIGHT FACE " ON UNIT  52 AT TIME STEP 11, STRESS PERIOD   1
 UBDSV1 SAVING "FLOW FRONT FACE " ON UNIT  52 AT TIME STEP 11, STRESS PERIOD   1
 UBDSV4 SAVING "  STREAM LEAKAGE" ON UNIT  52 AT TIME STEP 11, STRESS PERIOD   1



 UBUDSV SAVING "           GW ET" ON UNIT 52 AT TIME STEP 11, STRESS PERIOD    1
 UBUDSV SAVING "    UZF RECHARGE" ON UNIT 52 AT TIME STEP 11, STRESS PERIOD    1
 UBUDSV SAVING " SURFACE LEAKAGE" ON UNIT 52 AT TIME STEP 11, STRESS PERIOD    1
 UBUDSV SAVING "       HORT+DUNN" ON UNIT 52 AT TIME STEP 11, STRESS PERIOD    1
 UBUDSV SAVING "  STORAGE CHANGE" ON UNIT 52 AT TIME STEP 11, STRESS PERIOD    1
 UBDSV4 SAVING "           AG WE" ON UNIT  52 AT TIME STEP 11, STRESS PERIOD   1

 HEAD WILL BE SAVED ON UNIT   51 AT END OF TIME STEP   11, STRESS PERIOD    1
 
 SOLVING FOR HEAD 

    ------------------------------------------------
       NWT REQUIRED            1 OUTER ITERATIONS 
       AND A TOTAL OF          2 INNER ITERATIONS.
    ------------------------------------------------

 OUTPUT CONTROL FOR STRESS PERIOD    1   TIME STEP   12
    SAVE HEAD FOR ALL LAYERS
    SAVE BUDGET
 UBDSV1 SAVING "         STORAGE" ON UNIT  52 AT TIME STEP 12, STRESS PERIOD   1
 UBDSV2 SAVING "   CONSTANT HEAD" ON UNIT  52 AT TIME STEP 12, STRESS PERIOD   1
 UBDSV1 SAVING "FLOW RIGHT FACE " ON UNIT  52 AT TIME STEP 12, STRESS PERIOD   1
 UBDSV1 SAVING "FLOW FRONT FACE " ON UNIT  52 AT TIME STEP 12, STRESS PERIOD   1
 UBDSV4 SAVING "  STREAM LEAKAGE" ON UNIT  52 AT TIME STEP 12, STRESS PERIOD   1



 UBUDSV SAVING "           GW ET" ON UNIT 52 AT TIME STEP 12, STRESS PERIOD    1
 UBUDSV SAVING "    UZF RECHARGE" ON UNIT 52 AT TIME STEP 12, STRESS PERIOD    1
 UBUDSV SAVING " SURFACE LEAKAGE" ON UNIT 52 AT TIME STEP 12, STRESS PERIOD    1
 UBUDSV SAVING "       HORT+DUNN" ON UNIT 52 AT TIME STEP 12, STRESS PERIOD    1
 UBUDSV SAVING "  STORAGE CHANGE" ON UNIT 52 AT TIME STEP 12, STRESS PERIOD    1
 UBDSV4 SAVING "           AG WE" ON UNIT  52 AT TIME STEP 12, STRESS PERIOD   1

 HEAD WILL BE SAVED ON UNIT   51 AT END OF TIME STEP   12, STRESS PERIOD    1
 
 SOLVING FOR HEAD 

    ------------------------------------------------
       NWT REQUIRED            1 OUTER ITERATIONS 
       AND A TOTAL OF          2 INNER ITERATIONS.
    ------------------------------------------------

 OUTPUT CONTROL FOR STRESS PERIOD    1   TIME STEP   13
    SAVE HEAD FOR ALL LAYERS
    SAVE BUDGET
 UBDSV1 SAVING "         STORAGE" ON UNIT  52 AT TIME STEP 13, STRESS PERIOD   1
 UBDSV2 SAVING "   CONSTANT HEAD" ON UNIT  52 AT TIME STEP 13, STRESS PERIOD   1
 UBDSV1 SAVING "FLOW RIGHT FACE " ON UNIT  52 AT TIME STEP 13, STRESS PERIOD   1
 UBDSV1 SAVING "FLOW FRONT FACE " ON UNIT  52 AT TIME STEP 13, STRESS PERIOD   1
 UBDSV4 SAVING "  STREAM LEAKAGE" ON UNIT  52 AT TIME STEP 13, STRESS PERIOD   1



 UBUDSV SAVING "           GW ET" ON UNIT 52 AT TIME STEP 13, STRESS PERIOD    1
 UBUDSV SAVING "    UZF RECHARGE" ON UNIT 52 AT TIME STEP 13, STRESS PERIOD    1
 UBUDSV SAVING " SURFACE LEAKAGE" ON UNIT 52 AT TIME STEP 13, STRESS PERIOD    1
 UBUDSV SAVING "       HORT+DUNN" ON UNIT 52 AT TIME STEP 13, STRESS PERIOD    1
 UBUDSV SAVING "  STORAGE CHANGE" ON UNIT 52 AT TIME STEP 13, STRESS PERIOD    1
 UBDSV4 SAVING "           AG WE" ON UNIT  52 AT TIME STEP 13, STRESS PERIOD   1

 HEAD WILL BE SAVED ON UNIT   51 AT END OF TIME STEP   13, STRESS PERIOD    1
 
 SOLVING FOR HEAD 

    ------------------------------------------------
       NWT REQUIRED            1 OUTER ITERATIONS 
       AND A TOTAL OF          2 INNER ITERATIONS.
    ------------------------------------------------

 OUTPUT CONTROL FOR STRESS PERIOD    1   TIME STEP   14
    SAVE HEAD FOR ALL LAYERS
    SAVE BUDGET
 UBDSV1 SAVING "         STORAGE" ON UNIT  52 AT TIME STEP 14, STRESS PERIOD   1
 UBDSV2 SAVING "   CONSTANT HEAD" ON UNIT  52 AT TIME STEP 14, STRESS PERIOD   1
 UBDSV1 SAVING "FLOW RIGHT FACE " ON UNIT  52 AT TIME STEP 14, STRESS PERIOD   1
 UBDSV1 SAVING "FLOW FRONT FACE " ON UNIT  52 AT TIME STEP 14, STRESS PERIOD   1
 UBDSV4 SAVING "  STREAM LEAKAGE" ON UNIT  52 AT TIME STEP 14, STRESS PERIOD   1



 UBUDSV SAVING "           GW ET" ON UNIT 52 AT TIME STEP 14, STRESS PERIOD    1
 UBUDSV SAVING "    UZF RECHARGE" ON UNIT 52 AT TIME STEP 14, STRESS PERIOD    1
 UBUDSV SAVING " SURFACE LEAKAGE" ON UNIT 52 AT TIME STEP 14, STRESS PERIOD    1
 UBUDSV SAVING "       HORT+DUNN" ON UNIT 52 AT TIME STEP 14, STRESS PERIOD    1
 UBUDSV SAVING "  STORAGE CHANGE" ON UNIT 52 AT TIME STEP 14, STRESS PERIOD    1
 UBDSV4 SAVING "           AG WE" ON UNIT  52 AT TIME STEP 14, STRESS PERIOD   1

 HEAD WILL BE SAVED ON UNIT   51 AT END OF TIME STEP   14, STRESS PERIOD    1
 
 SOLVING FOR HEAD 

    ------------------------------------------------
       NWT REQUIRED            1 OUTER ITERATIONS 
       AND A TOTAL OF          2 INNER ITERATIONS.
    ------------------------------------------------

 OUTPUT CONTROL FOR STRESS PERIOD    1   TIME STEP   15
    SAVE HEAD FOR ALL LAYERS
    SAVE BUDGET
 UBDSV1 SAVING "         STORAGE" ON UNIT  52 AT TIME STEP 15, STRESS PERIOD   1
 UBDSV2 SAVING "   CONSTANT HEAD" ON UNIT  52 AT TIME STEP 15, STRESS PERIOD   1
 UBDSV1 SAVING "FLOW RIGHT FACE " ON UNIT  52 AT TIME STEP 15, STRESS PERIOD   1
 UBDSV1 SAVING "FLOW FRONT FACE " ON UNIT  52 AT TIME STEP 15, STRESS PERIOD   1
 UBDSV4 SAVING "  STREAM LEAKAGE" ON UNIT  52 AT TIME STEP 15, STRESS PERIOD   1



 UBUDSV SAVING "           GW ET" ON UNIT 52 AT TIME STEP 15, STRESS PERIOD    1
 UBUDSV SAVING "    UZF RECHARGE" ON UNIT 52 AT TIME STEP 15, STRESS PERIOD    1
 UBUDSV SAVING " SURFACE LEAKAGE" ON UNIT 52 AT TIME STEP 15, STRESS PERIOD    1
 UBUDSV SAVING "       HORT+DUNN" ON UNIT 52 AT TIME STEP 15, STRESS PERIOD    1
 UBUDSV SAVING "  STORAGE CHANGE" ON UNIT 52 AT TIME STEP 15, STRESS PERIOD    1
 UBDSV4 SAVING "           AG WE" ON UNIT  52 AT TIME STEP 15, STRESS PERIOD   1

 HEAD WILL BE SAVED ON UNIT   51 AT END OF TIME STEP   15, STRESS PERIOD    1
 
 SOLVING FOR HEAD 

    ------------------------------------------------
       NWT REQUIRED            1 OUTER ITERATIONS 
       AND A TOTAL OF          2 INNER ITERATIONS.
    ------------------------------------------------

 OUTPUT CONTROL FOR STRESS PERIOD    1   TIME STEP   16
    SAVE HEAD FOR ALL LAYERS
    SAVE BUDGET
 UBDSV1 SAVING "         STORAGE" ON UNIT  52 AT TIME STEP 16, STRESS PERIOD   1
 UBDSV2 SAVING "   CONSTANT HEAD" ON UNIT  52 AT TIME STEP 16, STRESS PERIOD   1
 UBDSV1 SAVING "FLOW RIGHT FACE " ON UNIT  52 AT TIME STEP 16, STRESS PERIOD   1
 UBDSV1 SAVING "FLOW FRONT FACE " ON UNIT  52 AT TIME STEP 16, STRESS PERIOD   1
 UBDSV4 SAVING "  STREAM LEAKAGE" ON UNIT  52 AT TIME STEP 16, STRESS PERIOD   1



 UBUDSV SAVING "           GW ET" ON UNIT 52 AT TIME STEP 16, STRESS PERIOD    1
 UBUDSV SAVING "    UZF RECHARGE" ON UNIT 52 AT TIME STEP 16, STRESS PERIOD    1
 UBUDSV SAVING " SURFACE LEAKAGE" ON UNIT 52 AT TIME STEP 16, STRESS PERIOD    1
 UBUDSV SAVING "       HORT+DUNN" ON UNIT 52 AT TIME STEP 16, STRESS PERIOD    1
 UBUDSV SAVING "  STORAGE CHANGE" ON UNIT 52 AT TIME STEP 16, STRESS PERIOD    1
 UBDSV4 SAVING "           AG WE" ON UNIT  52 AT TIME STEP 16, STRESS PERIOD   1

 HEAD WILL BE SAVED ON UNIT   51 AT END OF TIME STEP   16, STRESS PERIOD    1
 
 SOLVING FOR HEAD 

    ------------------------------------------------
       NWT REQUIRED            1 OUTER ITERATIONS 
       AND A TOTAL OF          2 INNER ITERATIONS.
    ------------------------------------------------

 OUTPUT CONTROL FOR STRESS PERIOD    1   TIME STEP   17
    SAVE HEAD FOR ALL LAYERS
    SAVE BUDGET
 UBDSV1 SAVING "         STORAGE" ON UNIT  52 AT TIME STEP 17, STRESS PERIOD   1
 UBDSV2 SAVING "   CONSTANT HEAD" ON UNIT  52 AT TIME STEP 17, STRESS PERIOD   1
 UBDSV1 SAVING "FLOW RIGHT FACE " ON UNIT  52 AT TIME STEP 17, STRESS PERIOD   1
 UBDSV1 SAVING "FLOW FRONT FACE " ON UNIT  52 AT TIME STEP 17, STRESS PERIOD   1
 UBDSV4 SAVING "  STREAM LEAKAGE" ON UNIT  52 AT TIME STEP 17, STRESS PERIOD   1



 UBUDSV SAVING "           GW ET" ON UNIT 52 AT TIME STEP 17, STRESS PERIOD    1
 UBUDSV SAVING "    UZF RECHARGE" ON UNIT 52 AT TIME STEP 17, STRESS PERIOD    1
 UBUDSV SAVING " SURFACE LEAKAGE" ON UNIT 52 AT TIME STEP 17, STRESS PERIOD    1
 UBUDSV SAVING "       HORT+DUNN" ON UNIT 52 AT TIME STEP 17, STRESS PERIOD    1
 UBUDSV SAVING "  STORAGE CHANGE" ON UNIT 52 AT TIME STEP 17, STRESS PERIOD    1
 UBDSV4 SAVING "           AG WE" ON UNIT  52 AT TIME STEP 17, STRESS PERIOD   1

 HEAD WILL BE SAVED ON UNIT   51 AT END OF TIME STEP   17, STRESS PERIOD    1
 
 SOLVING FOR HEAD 

    ------------------------------------------------
       NWT REQUIRED            1 OUTER ITERATIONS 
       AND A TOTAL OF          2 INNER ITERATIONS.
    ------------------------------------------------

 OUTPUT CONTROL FOR STRESS PERIOD    1   TIME STEP   18
    SAVE HEAD FOR ALL LAYERS
    SAVE BUDGET
 UBDSV1 SAVING "         STORAGE" ON UNIT  52 AT TIME STEP 18, STRESS PERIOD   1
 UBDSV2 SAVING "   CONSTANT HEAD" ON UNIT  52 AT TIME STEP 18, STRESS PERIOD   1
 UBDSV1 SAVING "FLOW RIGHT FACE " ON UNIT  52 AT TIME STEP 18, STRESS PERIOD   1
 UBDSV1 SAVING "FLOW FRONT FACE " ON UNIT  52 AT TIME STEP 18, STRESS PERIOD   1
 UBDSV4 SAVING "  STREAM LEAKAGE" ON UNIT  52 AT TIME STEP 18, STRESS PERIOD   1



 UBUDSV SAVING "           GW ET" ON UNIT 52 AT TIME STEP 18, STRESS PERIOD    1
 UBUDSV SAVING "    UZF RECHARGE" ON UNIT 52 AT TIME STEP 18, STRESS PERIOD    1
 UBUDSV SAVING " SURFACE LEAKAGE" ON UNIT 52 AT TIME STEP 18, STRESS PERIOD    1
 UBUDSV SAVING "       HORT+DUNN" ON UNIT 52 AT TIME STEP 18, STRESS PERIOD    1
 UBUDSV SAVING "  STORAGE CHANGE" ON UNIT 52 AT TIME STEP 18, STRESS PERIOD    1
 UBDSV4 SAVING "           AG WE" ON UNIT  52 AT TIME STEP 18, STRESS PERIOD   1

 HEAD WILL BE SAVED ON UNIT   51 AT END OF TIME STEP   18, STRESS PERIOD    1
 
 SOLVING FOR HEAD 

    ------------------------------------------------
       NWT REQUIRED            1 OUTER ITERATIONS 
       AND A TOTAL OF          2 INNER ITERATIONS.
    ------------------------------------------------

 OUTPUT CONTROL FOR STRESS PERIOD    1   TIME STEP   19
    SAVE HEAD FOR ALL LAYERS
    SAVE BUDGET
 UBDSV1 SAVING "         STORAGE" ON UNIT  52 AT TIME STEP 19, STRESS PERIOD   1
 UBDSV2 SAVING "   CONSTANT HEAD" ON UNIT  52 AT TIME STEP 19, STRESS PERIOD   1
 UBDSV1 SAVING "FLOW RIGHT FACE " ON UNIT  52 AT TIME STEP 19, STRESS PERIOD   1
 UBDSV1 SAVING "FLOW FRONT FACE " ON UNIT  52 AT TIME STEP 19, STRESS PERIOD   1
 UBDSV4 SAVING "  STREAM LEAKAGE" ON UNIT  52 AT TIME STEP 19, STRESS PERIOD   1



 UBUDSV SAVING "           GW ET" ON UNIT 52 AT TIME STEP 19, STRESS PERIOD    1
 UBUDSV SAVING "    UZF RECHARGE" ON UNIT 52 AT TIME STEP 19, STRESS PERIOD    1
 UBUDSV SAVING " SURFACE LEAKAGE" ON UNIT 52 AT TIME STEP 19, STRESS PERIOD    1
 UBUDSV SAVING "       HORT+DUNN" ON UNIT 52 AT TIME STEP 19, STRESS PERIOD    1
 UBUDSV SAVING "  STORAGE CHANGE" ON UNIT 52 AT TIME STEP 19, STRESS PERIOD    1
 UBDSV4 SAVING "           AG WE" ON UNIT  52 AT TIME STEP 19, STRESS PERIOD   1

 HEAD WILL BE SAVED ON UNIT   51 AT END OF TIME STEP   19, STRESS PERIOD    1
 
 SOLVING FOR HEAD 

    ------------------------------------------------
       NWT REQUIRED            1 OUTER ITERATIONS 
       AND A TOTAL OF          2 INNER ITERATIONS.
    ------------------------------------------------

 OUTPUT CONTROL FOR STRESS PERIOD    1   TIME STEP   20
    SAVE HEAD FOR ALL LAYERS
    SAVE BUDGET
 UBDSV1 SAVING "         STORAGE" ON UNIT  52 AT TIME STEP 20, STRESS PERIOD   1
 UBDSV2 SAVING "   CONSTANT HEAD" ON UNIT  52 AT TIME STEP 20, STRESS PERIOD   1
 UBDSV1 SAVING "FLOW RIGHT FACE " ON UNIT  52 AT TIME STEP 20, STRESS PERIOD   1
 UBDSV1 SAVING "FLOW FRONT FACE " ON UNIT  52 AT TIME STEP 20, STRESS PERIOD   1
 UBDSV4 SAVING "  STREAM LEAKAGE" ON UNIT  52 AT TIME STEP 20, STRESS PERIOD   1



 UBUDSV SAVING "           GW ET" ON UNIT 52 AT TIME STEP 20, STRESS PERIOD    1
 UBUDSV SAVING "    UZF RECHARGE" ON UNIT 52 AT TIME STEP 20, STRESS PERIOD    1
 UBUDSV SAVING " SURFACE LEAKAGE" ON UNIT 52 AT TIME STEP 20, STRESS PERIOD    1
 UBUDSV SAVING "       HORT+DUNN" ON UNIT 52 AT TIME STEP 20, STRESS PERIOD    1
 UBUDSV SAVING "  STORAGE CHANGE" ON UNIT 52 AT TIME STEP 20, STRESS PERIOD    1
 UBDSV4 SAVING "           AG WE" ON UNIT  52 AT TIME STEP 20, STRESS PERIOD   1

 HEAD WILL BE SAVED ON UNIT   51 AT END OF TIME STEP   20, STRESS PERIOD    1
 
 SOLVING FOR HEAD 

    ------------------------------------------------
       NWT REQUIRED            1 OUTER ITERATIONS 
       AND A TOTAL OF          2 INNER ITERATIONS.
    ------------------------------------------------

 OUTPUT CONTROL FOR STRESS PERIOD    1   TIME STEP   21
    SAVE HEAD FOR ALL LAYERS
    SAVE BUDGET
 UBDSV1 SAVING "         STORAGE" ON UNIT  52 AT TIME STEP 21, STRESS PERIOD   1
 UBDSV2 SAVING "   CONSTANT HEAD" ON UNIT  52 AT TIME STEP 21, STRESS PERIOD   1
 UBDSV1 SAVING "FLOW RIGHT FACE " ON UNIT  52 AT TIME STEP 21, STRESS PERIOD   1
 UBDSV1 SAVING "FLOW FRONT FACE " ON UNIT  52 AT TIME STEP 21, STRESS PERIOD   1
 UBDSV4 SAVING "  STREAM LEAKAGE" ON UNIT  52 AT TIME STEP 21, STRESS PERIOD   1



 UBUDSV SAVING "           GW ET" ON UNIT 52 AT TIME STEP 21, STRESS PERIOD    1
 UBUDSV SAVING "    UZF RECHARGE" ON UNIT 52 AT TIME STEP 21, STRESS PERIOD    1
 UBUDSV SAVING " SURFACE LEAKAGE" ON UNIT 52 AT TIME STEP 21, STRESS PERIOD    1
 UBUDSV SAVING "       HORT+DUNN" ON UNIT 52 AT TIME STEP 21, STRESS PERIOD    1
 UBUDSV SAVING "  STORAGE CHANGE" ON UNIT 52 AT TIME STEP 21, STRESS PERIOD    1
 UBDSV4 SAVING "           AG WE" ON UNIT  52 AT TIME STEP 21, STRESS PERIOD   1

 HEAD WILL BE SAVED ON UNIT   51 AT END OF TIME STEP   21, STRESS PERIOD    1
 
 SOLVING FOR HEAD 

    ------------------------------------------------
       NWT REQUIRED            1 OUTER ITERATIONS 
       AND A TOTAL OF          2 INNER ITERATIONS.
    ------------------------------------------------

 OUTPUT CONTROL FOR STRESS PERIOD    1   TIME STEP   22
    SAVE HEAD FOR ALL LAYERS
    SAVE BUDGET
 UBDSV1 SAVING "         STORAGE" ON UNIT  52 AT TIME STEP 22, STRESS PERIOD   1
 UBDSV2 SAVING "   CONSTANT HEAD" ON UNIT  52 AT TIME STEP 22, STRESS PERIOD   1
 UBDSV1 SAVING "FLOW RIGHT FACE " ON UNIT  52 AT TIME STEP 22, STRESS PERIOD   1
 UBDSV1 SAVING "FLOW FRONT FACE " ON UNIT  52 AT TIME STEP 22, STRESS PERIOD   1
 UBDSV4 SAVING "  STREAM LEAKAGE" ON UNIT  52 AT TIME STEP 22, STRESS PERIOD   1



 UBUDSV SAVING "           GW ET" ON UNIT 52 AT TIME STEP 22, STRESS PERIOD    1
 UBUDSV SAVING "    UZF RECHARGE" ON UNIT 52 AT TIME STEP 22, STRESS PERIOD    1
 UBUDSV SAVING " SURFACE LEAKAGE" ON UNIT 52 AT TIME STEP 22, STRESS PERIOD    1
 UBUDSV SAVING "       HORT+DUNN" ON UNIT 52 AT TIME STEP 22, STRESS PERIOD    1
 UBUDSV SAVING "  STORAGE CHANGE" ON UNIT 52 AT TIME STEP 22, STRESS PERIOD    1
 UBDSV4 SAVING "           AG WE" ON UNIT  52 AT TIME STEP 22, STRESS PERIOD   1

 HEAD WILL BE SAVED ON UNIT   51 AT END OF TIME STEP   22, STRESS PERIOD    1
 
 SOLVING FOR HEAD 

    ------------------------------------------------
       NWT REQUIRED            1 OUTER ITERATIONS 
       AND A TOTAL OF          2 INNER ITERATIONS.
    ------------------------------------------------

 OUTPUT CONTROL FOR STRESS PERIOD    1   TIME STEP   23
    SAVE HEAD FOR ALL LAYERS
    SAVE BUDGET
 UBDSV1 SAVING "         STORAGE" ON UNIT  52 AT TIME STEP 23, STRESS PERIOD   1
 UBDSV2 SAVING "   CONSTANT HEAD" ON UNIT  52 AT TIME STEP 23, STRESS PERIOD   1
 UBDSV1 SAVING "FLOW RIGHT FACE " ON UNIT  52 AT TIME STEP 23, STRESS PERIOD   1
 UBDSV1 SAVING "FLOW FRONT FACE " ON UNIT  52 AT TIME STEP 23, STRESS PERIOD   1
 UBDSV4 SAVING "  STREAM LEAKAGE" ON UNIT  52 AT TIME STEP 23, STRESS PERIOD   1



 UBUDSV SAVING "           GW ET" ON UNIT 52 AT TIME STEP 23, STRESS PERIOD    1
 UBUDSV SAVING "    UZF RECHARGE" ON UNIT 52 AT TIME STEP 23, STRESS PERIOD    1
 UBUDSV SAVING " SURFACE LEAKAGE" ON UNIT 52 AT TIME STEP 23, STRESS PERIOD    1
 UBUDSV SAVING "       HORT+DUNN" ON UNIT 52 AT TIME STEP 23, STRESS PERIOD    1
 UBUDSV SAVING "  STORAGE CHANGE" ON UNIT 52 AT TIME STEP 23, STRESS PERIOD    1
 UBDSV4 SAVING "           AG WE" ON UNIT  52 AT TIME STEP 23, STRESS PERIOD   1

 HEAD WILL BE SAVED ON UNIT   51 AT END OF TIME STEP   23, STRESS PERIOD    1
 
 SOLVING FOR HEAD 

    ------------------------------------------------
       NWT REQUIRED            1 OUTER ITERATIONS 
       AND A TOTAL OF          2 INNER ITERATIONS.
    ------------------------------------------------

 OUTPUT CONTROL FOR STRESS PERIOD    1   TIME STEP   24
    SAVE HEAD FOR ALL LAYERS
    SAVE BUDGET
 UBDSV1 SAVING "         STORAGE" ON UNIT  52 AT TIME STEP 24, STRESS PERIOD   1
 UBDSV2 SAVING "   CONSTANT HEAD" ON UNIT  52 AT TIME STEP 24, STRESS PERIOD   1
 UBDSV1 SAVING "FLOW RIGHT FACE " ON UNIT  52 AT TIME STEP 24, STRESS PERIOD   1
 UBDSV1 SAVING "FLOW FRONT FACE " ON UNIT  52 AT TIME STEP 24, STRESS PERIOD   1
 UBDSV4 SAVING "  STREAM LEAKAGE" ON UNIT  52 AT TIME STEP 24, STRESS PERIOD   1



 UBUDSV SAVING "           GW ET" ON UNIT 52 AT TIME STEP 24, STRESS PERIOD    1
 UBUDSV SAVING "    UZF RECHARGE" ON UNIT 52 AT TIME STEP 24, STRESS PERIOD    1
 UBUDSV SAVING " SURFACE LEAKAGE" ON UNIT 52 AT TIME STEP 24, STRESS PERIOD    1
 UBUDSV SAVING "       HORT+DUNN" ON UNIT 52 AT TIME STEP 24, STRESS PERIOD    1
 UBUDSV SAVING "  STORAGE CHANGE" ON UNIT 52 AT TIME STEP 24, STRESS PERIOD    1
 UBDSV4 SAVING "           AG WE" ON UNIT  52 AT TIME STEP 24, STRESS PERIOD   1

 HEAD WILL BE SAVED ON UNIT   51 AT END OF TIME STEP   24, STRESS PERIOD    1
 
 SOLVING FOR HEAD 

    ------------------------------------------------
       NWT REQUIRED            1 OUTER ITERATIONS 
       AND A TOTAL OF          2 INNER ITERATIONS.
    ------------------------------------------------

 OUTPUT CONTROL FOR STRESS PERIOD    1   TIME STEP   25
    SAVE HEAD FOR ALL LAYERS
    SAVE BUDGET
 UBDSV1 SAVING "         STORAGE" ON UNIT  52 AT TIME STEP 25, STRESS PERIOD   1
 UBDSV2 SAVING "   CONSTANT HEAD" ON UNIT  52 AT TIME STEP 25, STRESS PERIOD   1
 UBDSV1 SAVING "FLOW RIGHT FACE " ON UNIT  52 AT TIME STEP 25, STRESS PERIOD   1
 UBDSV1 SAVING "FLOW FRONT FACE " ON UNIT  52 AT TIME STEP 25, STRESS PERIOD   1
 UBDSV4 SAVING "  STREAM LEAKAGE" ON UNIT  52 AT TIME STEP 25, STRESS PERIOD   1



 UBUDSV SAVING "           GW ET" ON UNIT 52 AT TIME STEP 25, STRESS PERIOD    1
 UBUDSV SAVING "    UZF RECHARGE" ON UNIT 52 AT TIME STEP 25, STRESS PERIOD    1
 UBUDSV SAVING " SURFACE LEAKAGE" ON UNIT 52 AT TIME STEP 25, STRESS PERIOD    1
 UBUDSV SAVING "       HORT+DUNN" ON UNIT 52 AT TIME STEP 25, STRESS PERIOD    1
 UBUDSV SAVING "  STORAGE CHANGE" ON UNIT 52 AT TIME STEP 25, STRESS PERIOD    1
 UBDSV4 SAVING "           AG WE" ON UNIT  52 AT TIME STEP 25, STRESS PERIOD   1

 HEAD WILL BE SAVED ON UNIT   51 AT END OF TIME STEP   25, STRESS PERIOD    1
 
 SOLVING FOR HEAD 

    ------------------------------------------------
       NWT REQUIRED            1 OUTER ITERATIONS 
       AND A TOTAL OF          2 INNER ITERATIONS.
    ------------------------------------------------

 OUTPUT CONTROL FOR STRESS PERIOD    1   TIME STEP   26
    SAVE HEAD FOR ALL LAYERS
    SAVE BUDGET
 UBDSV1 SAVING "         STORAGE" ON UNIT  52 AT TIME STEP 26, STRESS PERIOD   1
 UBDSV2 SAVING "   CONSTANT HEAD" ON UNIT  52 AT TIME STEP 26, STRESS PERIOD   1
 UBDSV1 SAVING "FLOW RIGHT FACE " ON UNIT  52 AT TIME STEP 26, STRESS PERIOD   1
 UBDSV1 SAVING "FLOW FRONT FACE " ON UNIT  52 AT TIME STEP 26, STRESS PERIOD   1
 UBDSV4 SAVING "  STREAM LEAKAGE" ON UNIT  52 AT TIME STEP 26, STRESS PERIOD   1



 UBUDSV SAVING "           GW ET" ON UNIT 52 AT TIME STEP 26, STRESS PERIOD    1
 UBUDSV SAVING "    UZF RECHARGE" ON UNIT 52 AT TIME STEP 26, STRESS PERIOD    1
 UBUDSV SAVING " SURFACE LEAKAGE" ON UNIT 52 AT TIME STEP 26, STRESS PERIOD    1
 UBUDSV SAVING "       HORT+DUNN" ON UNIT 52 AT TIME STEP 26, STRESS PERIOD    1
 UBUDSV SAVING "  STORAGE CHANGE" ON UNIT 52 AT TIME STEP 26, STRESS PERIOD    1
 UBDSV4 SAVING "           AG WE" ON UNIT  52 AT TIME STEP 26, STRESS PERIOD   1

 HEAD WILL BE SAVED ON UNIT   51 AT END OF TIME STEP   26, STRESS PERIOD    1
 
 SOLVING FOR HEAD 

    ------------------------------------------------
       NWT REQUIRED            1 OUTER ITERATIONS 
       AND A TOTAL OF          2 INNER ITERATIONS.
    ------------------------------------------------

 OUTPUT CONTROL FOR STRESS PERIOD    1   TIME STEP   27
    SAVE HEAD FOR ALL LAYERS
    SAVE BUDGET
 UBDSV1 SAVING "         STORAGE" ON UNIT  52 AT TIME STEP 27, STRESS PERIOD   1
 UBDSV2 SAVING "   CONSTANT HEAD" ON UNIT  52 AT TIME STEP 27, STRESS PERIOD   1
 UBDSV1 SAVING "FLOW RIGHT FACE " ON UNIT  52 AT TIME STEP 27, STRESS PERIOD   1
 UBDSV1 SAVING "FLOW FRONT FACE " ON UNIT  52 AT TIME STEP 27, STRESS PERIOD   1
 UBDSV4 SAVING "  STREAM LEAKAGE" ON UNIT  52 AT TIME STEP 27, STRESS PERIOD   1



 UBUDSV SAVING "           GW ET" ON UNIT 52 AT TIME STEP 27, STRESS PERIOD    1
 UBUDSV SAVING "    UZF RECHARGE" ON UNIT 52 AT TIME STEP 27, STRESS PERIOD    1
 UBUDSV SAVING " SURFACE LEAKAGE" ON UNIT 52 AT TIME STEP 27, STRESS PERIOD    1
 UBUDSV SAVING "       HORT+DUNN" ON UNIT 52 AT TIME STEP 27, STRESS PERIOD    1
 UBUDSV SAVING "  STORAGE CHANGE" ON UNIT 52 AT TIME STEP 27, STRESS PERIOD    1
 UBDSV4 SAVING "           AG WE" ON UNIT  52 AT TIME STEP 27, STRESS PERIOD   1

 HEAD WILL BE SAVED ON UNIT   51 AT END OF TIME STEP   27, STRESS PERIOD    1
 
 SOLVING FOR HEAD 

    ------------------------------------------------
       NWT REQUIRED            1 OUTER ITERATIONS 
       AND A TOTAL OF          2 INNER ITERATIONS.
    ------------------------------------------------

 OUTPUT CONTROL FOR STRESS PERIOD    1   TIME STEP   28
    SAVE HEAD FOR ALL LAYERS
    SAVE BUDGET
 UBDSV1 SAVING "         STORAGE" ON UNIT  52 AT TIME STEP 28, STRESS PERIOD   1
 UBDSV2 SAVING "   CONSTANT HEAD" ON UNIT  52 AT TIME STEP 28, STRESS PERIOD   1
 UBDSV1 SAVING "FLOW RIGHT FACE " ON UNIT  52 AT TIME STEP 28, STRESS PERIOD   1
 UBDSV1 SAVING "FLOW FRONT FACE " ON UNIT  52 AT TIME STEP 28, STRESS PERIOD   1
 UBDSV4 SAVING "  STREAM LEAKAGE" ON UNIT  52 AT TIME STEP 28, STRESS PERIOD   1



 UBUDSV SAVING "           GW ET" ON UNIT 52 AT TIME STEP 28, STRESS PERIOD    1
 UBUDSV SAVING "    UZF RECHARGE" ON UNIT 52 AT TIME STEP 28, STRESS PERIOD    1
 UBUDSV SAVING " SURFACE LEAKAGE" ON UNIT 52 AT TIME STEP 28, STRESS PERIOD    1
 UBUDSV SAVING "       HORT+DUNN" ON UNIT 52 AT TIME STEP 28, STRESS PERIOD    1
 UBUDSV SAVING "  STORAGE CHANGE" ON UNIT 52 AT TIME STEP 28, STRESS PERIOD    1
 UBDSV4 SAVING "           AG WE" ON UNIT  52 AT TIME STEP 28, STRESS PERIOD   1

 HEAD WILL BE SAVED ON UNIT   51 AT END OF TIME STEP   28, STRESS PERIOD    1
 
 SOLVING FOR HEAD 

    ------------------------------------------------
       NWT REQUIRED            1 OUTER ITERATIONS 
       AND A TOTAL OF          2 INNER ITERATIONS.
    ------------------------------------------------

 OUTPUT CONTROL FOR STRESS PERIOD    1   TIME STEP   29
    SAVE HEAD FOR ALL LAYERS
    SAVE BUDGET
 UBDSV1 SAVING "         STORAGE" ON UNIT  52 AT TIME STEP 29, STRESS PERIOD   1
 UBDSV2 SAVING "   CONSTANT HEAD" ON UNIT  52 AT TIME STEP 29, STRESS PERIOD   1
 UBDSV1 SAVING "FLOW RIGHT FACE " ON UNIT  52 AT TIME STEP 29, STRESS PERIOD   1
 UBDSV1 SAVING "FLOW FRONT FACE " ON UNIT  52 AT TIME STEP 29, STRESS PERIOD   1
 UBDSV4 SAVING "  STREAM LEAKAGE" ON UNIT  52 AT TIME STEP 29, STRESS PERIOD   1



 UBUDSV SAVING "           GW ET" ON UNIT 52 AT TIME STEP 29, STRESS PERIOD    1
 UBUDSV SAVING "    UZF RECHARGE" ON UNIT 52 AT TIME STEP 29, STRESS PERIOD    1
 UBUDSV SAVING " SURFACE LEAKAGE" ON UNIT 52 AT TIME STEP 29, STRESS PERIOD    1
 UBUDSV SAVING "       HORT+DUNN" ON UNIT 52 AT TIME STEP 29, STRESS PERIOD    1
 UBUDSV SAVING "  STORAGE CHANGE" ON UNIT 52 AT TIME STEP 29, STRESS PERIOD    1
 UBDSV4 SAVING "           AG WE" ON UNIT  52 AT TIME STEP 29, STRESS PERIOD   1

 HEAD WILL BE SAVED ON UNIT   51 AT END OF TIME STEP   29, STRESS PERIOD    1
 
 SOLVING FOR HEAD 

    ------------------------------------------------
       NWT REQUIRED            1 OUTER ITERATIONS 
       AND A TOTAL OF          2 INNER ITERATIONS.
    ------------------------------------------------

 OUTPUT CONTROL FOR STRESS PERIOD    1   TIME STEP   30
    SAVE HEAD FOR ALL LAYERS
    SAVE BUDGET
 UBDSV1 SAVING "         STORAGE" ON UNIT  52 AT TIME STEP 30, STRESS PERIOD   1
 UBDSV2 SAVING "   CONSTANT HEAD" ON UNIT  52 AT TIME STEP 30, STRESS PERIOD   1
 UBDSV1 SAVING "FLOW RIGHT FACE " ON UNIT  52 AT TIME STEP 30, STRESS PERIOD   1
 UBDSV1 SAVING "FLOW FRONT FACE " ON UNIT  52 AT TIME STEP 30, STRESS PERIOD   1
 UBDSV4 SAVING "  STREAM LEAKAGE" ON UNIT  52 AT TIME STEP 30, STRESS PERIOD   1



 UBUDSV SAVING "           GW ET" ON UNIT 52 AT TIME STEP 30, STRESS PERIOD    1
 UBUDSV SAVING "    UZF RECHARGE" ON UNIT 52 AT TIME STEP 30, STRESS PERIOD    1
 UBUDSV SAVING " SURFACE LEAKAGE" ON UNIT 52 AT TIME STEP 30, STRESS PERIOD    1
 UBUDSV SAVING "       HORT+DUNN" ON UNIT 52 AT TIME STEP 30, STRESS PERIOD    1
 UBUDSV SAVING "  STORAGE CHANGE" ON UNIT 52 AT TIME STEP 30, STRESS PERIOD    1
 UBDSV4 SAVING "           AG WE" ON UNIT  52 AT TIME STEP 30, STRESS PERIOD   1

 HEAD WILL BE SAVED ON UNIT   51 AT END OF TIME STEP   30, STRESS PERIOD    1
 
 SOLVING FOR HEAD 

    ------------------------------------------------
       NWT REQUIRED            1 OUTER ITERATIONS 
       AND A TOTAL OF          2 INNER ITERATIONS.
    ------------------------------------------------

 OUTPUT CONTROL FOR STRESS PERIOD    1   TIME STEP   31
    SAVE HEAD FOR ALL LAYERS
    SAVE BUDGET
 UBDSV1 SAVING "         STORAGE" ON UNIT  52 AT TIME STEP 31, STRESS PERIOD   1
 UBDSV2 SAVING "   CONSTANT HEAD" ON UNIT  52 AT TIME STEP 31, STRESS PERIOD   1
 UBDSV1 SAVING "FLOW RIGHT FACE " ON UNIT  52 AT TIME STEP 31, STRESS PERIOD   1
 UBDSV1 SAVING "FLOW FRONT FACE " ON UNIT  52 AT TIME STEP 31, STRESS PERIOD   1
 UBDSV4 SAVING "  STREAM LEAKAGE" ON UNIT  52 AT TIME STEP 31, STRESS PERIOD   1



 UBUDSV SAVING "           GW ET" ON UNIT 52 AT TIME STEP 31, STRESS PERIOD    1
 UBUDSV SAVING "    UZF RECHARGE" ON UNIT 52 AT TIME STEP 31, STRESS PERIOD    1
 UBUDSV SAVING " SURFACE LEAKAGE" ON UNIT 52 AT TIME STEP 31, STRESS PERIOD    1
 UBUDSV SAVING "       HORT+DUNN" ON UNIT 52 AT TIME STEP 31, STRESS PERIOD    1
 UBUDSV SAVING "  STORAGE CHANGE" ON UNIT 52 AT TIME STEP 31, STRESS PERIOD    1


UNSATURATED ZONE PACKAGE VOLUMETRIC BUDGET FOR  TIME STEP    31 STRESS PERIOD    1
  ------------------------------------------------------------------------------



     CUMULATIVE VOLUMES      L**3       RATES FOR THIS TIME STEP      L**3/T
     ------------------                 ------------------------

           IN:                                      IN:
           ---                                      ---
        INFILTRATION =       34922.1603          INFILTRATION =        1126.5213

          OUT:                                     OUT:
          ----                                     ----
              UZF ET =       13147.5351                UZF ET =         424.1140
        UZF RECHARGE =        1320.8245          UZF RECHARGE =          42.6078

            IN - OUT =       20453.8007              IN - OUT =         659.7995

          STORAGE:                                 STORAGE:
          --------                                 --------
      STORAGE CHANGE =       20453.8017        STORAGE CHANGE =         659.7995

 PERCENT DISCREPANCY IS DIFFERENCE BETWEEN IN-OUT MINUS CHANGE IN STORAGE
 DIVIDED BY THE AVERAGE OF IN AND OUT TIMES 100

 PERCENT DISCREPANCY =           0.00     PERCENT DISCREPANCY =          -0.00






 UBDSV4 SAVING "           AG WE" ON UNIT  52 AT TIME STEP 31, STRESS PERIOD   1
1
  VOLUMETRIC BUDGET FOR AGRICULTURAL FIELDS AT TIME STEP   31, STRESS PERIOD   1
  ------------------------------------------------------------------------------

     CUMULATIVE VOLUMES      L**3       RATES FOR THIS TIME STEP      L**3/T
     ------------------                 ------------------------

           IN:                                      IN:
           ---                                      ---
               AG WELLS  =           0.0000                 AG WELLS  =           0.0000
      DIVERSION SEGMENTS =           0.0000        DIVERSION SEGMENTS =           0.0000
           GW IRRIGATION =           0.0000             GW IRRIGATION =           0.0000
           SW IRRIGATION =           0.0000             SW IRRIGATION =           0.0000
        SYSTEM LOSSES GW =           0.0000          SYSTEM LOSSES GW =           0.0000
        SYSTEM LOSSES SW =           0.0000          SYSTEM LOSSES SW =           0.0000

                TOTAL IN =           0.0000                  TOTAL IN =           0.0000

          OUT:                                     OUT:
          ----                                     ----
               AG WELLS  =           0.0000                 AG WELLS  =           0.0000
      DIVERSION SEGMENTS =           0.0000        DIVERSION SEGMENTS =           0.0000
           GW IRRIGATION =           0.0000             GW IRRIGATION =           0.0000
           SW IRRIGATION =           0.0000             SW IRRIGATION =           0.0000
        SYSTEM LOSSES GW =           0.0000          SYSTEM LOSSES GW =           0.0000
        SYSTEM LOSSES SW =           0.0000          SYSTEM LOSSES SW =           0.0000

               TOTAL OUT =           0.0000                 TOTAL OUT =           0.0000

                IN - OUT =           0.0000                  IN - OUT =           0.0000

     PERCENT DISCREPANCY =           0.00         PERCENT DISCREPANCY =           0.00




 HEAD WILL BE SAVED ON UNIT   51 AT END OF TIME STEP   31, STRESS PERIOD    1
1
  VOLUMETRIC BUDGET FOR ENTIRE MODEL AT END OF TIME STEP   31, STRESS PERIOD   1
  ------------------------------------------------------------------------------

     CUMULATIVE VOLUMES      L**3       RATES FOR THIS TIME STEP      L**3/T
     ------------------                 ------------------------

           IN:                                      IN:
           ---                                      ---
             STORAGE     =           0.0000               STORAGE     =           0.0000
       CONSTANT HEAD     =           0.0000         CONSTANT HEAD     =           0.0000
      STREAM LEAKAGE     =           2.3567        STREAM LEAKAGE     =       7.6023E-02
        UZF RECHARGE     =        1320.8247          UZF RECHARGE     =          42.6078
               GW ET     =           0.0000                 GW ET     =           0.0000
     SURFACE LEAKAGE     =           0.0000       SURFACE LEAKAGE     =           0.0000
           AG WELLS      =           0.0000             AG WELLS      =           0.0000

                TOTAL IN =        1323.1814                  TOTAL IN =          42.6838

          OUT:                                     OUT:
          ----                                     ----
             STORAGE     =        1194.6985               STORAGE     =          38.5391
       CONSTANT HEAD     =           0.0000         CONSTANT HEAD     =           0.0000
      STREAM LEAKAGE     =           0.0000        STREAM LEAKAGE     =           0.0000
        UZF RECHARGE     =           0.0000          UZF RECHARGE     =           0.0000
               GW ET     =           0.0000                 GW ET     =           0.0000
     SURFACE LEAKAGE     =           0.0000       SURFACE LEAKAGE     =           0.0000
           AG WELLS      =           0.0000             AG WELLS      =           0.0000

               TOTAL OUT =        1194.6985                 TOTAL OUT =          38.5391

                IN - OUT =         128.4829                  IN - OUT =           4.1447

     PERCENT DISCREPANCY =          10.21         PERCENT DISCREPANCY =          10.21






         TIME SUMMARY AT END OF TIME STEP   31 IN STRESS PERIOD    1
                    SECONDS     MINUTES      HOURS       DAYS        YEARS
                    -----------------------------------------------------------
   TIME STEP LENGTH  86400.      1440.0      24.000      1.0000     2.73785E-03
 STRESS PERIOD TIME 2.67840E+06  44640.      744.00      31.000     8.48734E-02
         TOTAL TIME 2.67840E+06  44640.      744.00      31.000     8.48734E-02
1
1
                            STRESS PERIOD NO.    2, LENGTH =   28.00000    
                            -----------------------------------------------

                              NUMBER OF TIME STEPS =    28

                               MULTIPLIER FOR DELT =     1.000

                            INITIAL TIME STEP SIZE =   1.000000    



 CLASSIFICATION & COUNT OF STREAM SEGMENTS BASED ON SOURCE OF INFLOW:

                HEADWATER     DIVERSION     RECEIVES TRIBUTARY FLOW
                ---------     ---------     -----------------------
                     1              2               9



                    INPUT DATA FOR EACH STREAM SEGMENT
 ---------------------------------------------------------------------------------------------

 SEGMENT    SEG.     INFLOW   OVERLAND   STREAM    STREAM   ICALC  OUTFLOW  DIVERSION PRIORITY
    NO.    LENGTH     RATE     RUNOFF      ET       PPT.    METH.  TO SEG.  FROM SEG.    NO.

      1  1.000E+02 5.000E+01 0.000E+00 0.000E+00 0.000E+00    1        2        0        0
      2  1.000E+02 0.000E+00 0.000E+00 0.000E+00 0.000E+00    1        3        0        0
      3  1.000E+02 0.000E+00 0.000E+00 0.000E+00 0.000E+00    1        4        0        0
      4  1.000E+02 0.000E+00 0.000E+00 0.000E+00 0.000E+00    1        5        0        0
      5  1.000E+02 0.000E+00 0.000E+00 0.000E+00 0.000E+00    1        6        0        0
      6  1.000E+02 0.000E+00 0.000E+00 0.000E+00 0.000E+00    1        7        0        0
      7  1.000E+02 0.000E+00 0.000E+00 0.000E+00 0.000E+00    1        8        0        0
      8  1.000E+02 0.000E+00 0.000E+00 0.000E+00 0.000E+00    1        9        0        0
      9  1.000E+02 0.000E+00 0.000E+00 0.000E+00 0.000E+00    1       10        0        0
     10  1.000E+02 0.000E+00 0.000E+00 0.000E+00 0.000E+00    1        0        0        0
     11  1.000E+02 2.000E+01 0.000E+00 0.000E+00 0.000E+00    1        0        3        0
     12  1.000E+02 1.000E+01 0.000E+00 0.000E+00 0.000E+00    1        0        5        0


         STREAMBED PROPERTIES AND STREAM DIMENSIONS

 SEGMENT     BED HYD. COND.      BED THICKNESS     ELEV.-TOP OF BED     WIDTH OF STREAM     DEPTH OF STREAM    STREAM ROUGHNESS
    No.     UPPER     LOWER     UPPER     LOWER     UPPER     LOWER     UPPER     LOWER     UPPER     LOWER   CHANNEL      BANK

     1  1.500E-05 1.500E-05 5.000E-01 5.000E-01 9.900E+01 9.898E+01 5.000E+00 5.000E+00                     3.000E-02
     2  1.500E-05 1.500E-05 5.000E-01 5.000E-01 9.898E+01 9.896E+01 5.000E+00 5.000E+00                     3.000E-02
     3  1.500E-05 1.500E-05 5.000E-01 5.000E-01 9.896E+01 9.894E+01 5.000E+00 5.000E+00                     3.000E-02
     4  1.500E-05 1.500E-05 5.000E-01 5.000E-01 9.894E+01 9.892E+01 5.000E+00 5.000E+00                     3.000E-02
     5  1.500E-05 1.500E-05 5.000E-01 5.000E-01 9.892E+01 9.890E+01 5.000E+00 5.000E+00                     3.000E-02
     6  1.500E-05 1.500E-05 5.000E-01 5.000E-01 9.890E+01 9.888E+01 5.000E+00 5.000E+00                     3.000E-02
     7  1.500E-05 1.500E-05 5.000E-01 5.000E-01 9.888E+01 9.886E+01 5.000E+00 5.000E+00                     3.000E-02
     8  1.500E-05 1.500E-05 5.000E-01 5.000E-01 9.886E+01 9.884E+01 5.000E+00 5.000E+00                     3.000E-02
     9  1.500E-05 1.500E-05 5.000E-01 5.000E-01 9.884E+01 9.882E+01 5.000E+00 5.000E+00                     3.000E-02
    10  1.500E-05 1.500E-05 5.000E-01 5.000E-01 9.882E+01 9.880E+01 5.000E+00 5.000E+00                     3.000E-02
    11  1.500E-05 1.500E-05 5.000E-01 5.000E-01 9.894E+01 9.892E+01 5.000E+00 5.000E+00                     3.000E-02
    12  1.500E-05 1.500E-05 5.000E-01 5.000E-01 9.890E+01 9.888E+01 5.000E+00 5.000E+00                     3.000E-02






            AREAL INFILTRATION RATE
 READING ON UNIT   19 WITH FORMAT: (10E15.6)           



                            ET RATE
 READING ON UNIT   19 WITH FORMAT: (10E15.6)           



                ET EXTINCTION DEPTH
 READING ON UNIT   19 WITH FORMAT: (10E15.6)           



           EXTINCTION WATER CONTENT
 READING ON UNIT   19 WITH FORMAT: (10E15.6)           

 PROCESSING AG STRESS PERIOD DATA

 READING AG STRESS PERIOD DATA

 READING IRRIGATION SEGMENT

 READING IRRIGATION WELL

 READING SUPPLEMENTAL WELL

 END PROCESSING AG STRESS PERIOD DATA OPTIONS
 
 SOLVING FOR HEAD 

    ------------------------------------------------
       NWT REQUIRED            1 OUTER ITERATIONS 
       AND A TOTAL OF          2 INNER ITERATIONS.
    ------------------------------------------------

 OUTPUT CONTROL FOR STRESS PERIOD    2   TIME STEP    1
    SAVE HEAD FOR ALL LAYERS
    SAVE BUDGET
 UBDSV1 SAVING "         STORAGE" ON UNIT  52 AT TIME STEP  1, STRESS PERIOD   2
 UBDSV2 SAVING "   CONSTANT HEAD" ON UNIT  52 AT TIME STEP  1, STRESS PERIOD   2
 UBDSV1 SAVING "FLOW RIGHT FACE " ON UNIT  52 AT TIME STEP  1, STRESS PERIOD   2
 UBDSV1 SAVING "FLOW FRONT FACE " ON UNIT  52 AT TIME STEP  1, STRESS PERIOD   2
 UBDSV4 SAVING "  STREAM LEAKAGE" ON UNIT  52 AT TIME STEP  1, STRESS PERIOD   2



 UBUDSV SAVING "           GW ET" ON UNIT 52 AT TIME STEP  1, STRESS PERIOD    2
 UBUDSV SAVING "    UZF RECHARGE" ON UNIT 52 AT TIME STEP  1, STRESS PERIOD    2
 UBUDSV SAVING " SURFACE LEAKAGE" ON UNIT 52 AT TIME STEP  1, STRESS PERIOD    2
 UBUDSV SAVING "       HORT+DUNN" ON UNIT 52 AT TIME STEP  1, STRESS PERIOD    2
 UBUDSV SAVING "  STORAGE CHANGE" ON UNIT 52 AT TIME STEP  1, STRESS PERIOD    2
 UBDSV4 SAVING "           AG WE" ON UNIT  52 AT TIME STEP  1, STRESS PERIOD   2

 HEAD WILL BE SAVED ON UNIT   51 AT END OF TIME STEP    1, STRESS PERIOD    2
 
 SOLVING FOR HEAD 

    ------------------------------------------------
       NWT REQUIRED            1 OUTER ITERATIONS 
       AND A TOTAL OF          2 INNER ITERATIONS.
    ------------------------------------------------

 OUTPUT CONTROL FOR STRESS PERIOD    2   TIME STEP    2
    SAVE HEAD FOR ALL LAYERS
    SAVE BUDGET
 UBDSV1 SAVING "         STORAGE" ON UNIT  52 AT TIME STEP  2, STRESS PERIOD   2
 UBDSV2 SAVING "   CONSTANT HEAD" ON UNIT  52 AT TIME STEP  2, STRESS PERIOD   2
 UBDSV1 SAVING "FLOW RIGHT FACE " ON UNIT  52 AT TIME STEP  2, STRESS PERIOD   2
 UBDSV1 SAVING "FLOW FRONT FACE " ON UNIT  52 AT TIME STEP  2, STRESS PERIOD   2
 UBDSV4 SAVING "  STREAM LEAKAGE" ON UNIT  52 AT TIME STEP  2, STRESS PERIOD   2



 UBUDSV SAVING "           GW ET" ON UNIT 52 AT TIME STEP  2, STRESS PERIOD    2
 UBUDSV SAVING "    UZF RECHARGE" ON UNIT 52 AT TIME STEP  2, STRESS PERIOD    2
 UBUDSV SAVING " SURFACE LEAKAGE" ON UNIT 52 AT TIME STEP  2, STRESS PERIOD    2
 UBUDSV SAVING "       HORT+DUNN" ON UNIT 52 AT TIME STEP  2, STRESS PERIOD    2
 UBUDSV SAVING "  STORAGE CHANGE" ON UNIT 52 AT TIME STEP  2, STRESS PERIOD    2
 UBDSV4 SAVING "           AG WE" ON UNIT  52 AT TIME STEP  2, STRESS PERIOD   2

 HEAD WILL BE SAVED ON UNIT   51 AT END OF TIME STEP    2, STRESS PERIOD    2
 
 SOLVING FOR HEAD 

    ------------------------------------------------
       NWT REQUIRED            1 OUTER ITERATIONS 
       AND A TOTAL OF          2 INNER ITERATIONS.
    ------------------------------------------------

 OUTPUT CONTROL FOR STRESS PERIOD    2   TIME STEP    3
    SAVE HEAD FOR ALL LAYERS
    SAVE BUDGET
 UBDSV1 SAVING "         STORAGE" ON UNIT  52 AT TIME STEP  3, STRESS PERIOD   2
 UBDSV2 SAVING "   CONSTANT HEAD" ON UNIT  52 AT TIME STEP  3, STRESS PERIOD   2
 UBDSV1 SAVING "FLOW RIGHT FACE " ON UNIT  52 AT TIME STEP  3, STRESS PERIOD   2
 UBDSV1 SAVING "FLOW FRONT FACE " ON UNIT  52 AT TIME STEP  3, STRESS PERIOD   2
 UBDSV4 SAVING "  STREAM LEAKAGE" ON UNIT  52 AT TIME STEP  3, STRESS PERIOD   2



 UBUDSV SAVING "           GW ET" ON UNIT 52 AT TIME STEP  3, STRESS PERIOD    2
 UBUDSV SAVING "    UZF RECHARGE" ON UNIT 52 AT TIME STEP  3, STRESS PERIOD    2
 UBUDSV SAVING " SURFACE LEAKAGE" ON UNIT 52 AT TIME STEP  3, STRESS PERIOD    2
 UBUDSV SAVING "       HORT+DUNN" ON UNIT 52 AT TIME STEP  3, STRESS PERIOD    2
 UBUDSV SAVING "  STORAGE CHANGE" ON UNIT 52 AT TIME STEP  3, STRESS PERIOD    2
 UBDSV4 SAVING "           AG WE" ON UNIT  52 AT TIME STEP  3, STRESS PERIOD   2

 HEAD WILL BE SAVED ON UNIT   51 AT END OF TIME STEP    3, STRESS PERIOD    2
 
 SOLVING FOR HEAD 

    ------------------------------------------------
       NWT REQUIRED            1 OUTER ITERATIONS 
       AND A TOTAL OF          2 INNER ITERATIONS.
    ------------------------------------------------

 OUTPUT CONTROL FOR STRESS PERIOD    2   TIME STEP    4
    SAVE HEAD FOR ALL LAYERS
    SAVE BUDGET
 UBDSV1 SAVING "         STORAGE" ON UNIT  52 AT TIME STEP  4, STRESS PERIOD   2
 UBDSV2 SAVING "   CONSTANT HEAD" ON UNIT  52 AT TIME STEP  4, STRESS PERIOD   2
 UBDSV1 SAVING "FLOW RIGHT FACE " ON UNIT  52 AT TIME STEP  4, STRESS PERIOD   2
 UBDSV1 SAVING "FLOW FRONT FACE " ON UNIT  52 AT TIME STEP  4, STRESS PERIOD   2
 UBDSV4 SAVING "  STREAM LEAKAGE" ON UNIT  52 AT TIME STEP  4, STRESS PERIOD   2



 UBUDSV SAVING "           GW ET" ON UNIT 52 AT TIME STEP  4, STRESS PERIOD    2
 UBUDSV SAVING "    UZF RECHARGE" ON UNIT 52 AT TIME STEP  4, STRESS PERIOD    2
 UBUDSV SAVING " SURFACE LEAKAGE" ON UNIT 52 AT TIME STEP  4, STRESS PERIOD    2
 UBUDSV SAVING "       HORT+DUNN" ON UNIT 52 AT TIME STEP  4, STRESS PERIOD    2
 UBUDSV SAVING "  STORAGE CHANGE" ON UNIT 52 AT TIME STEP  4, STRESS PERIOD    2
 UBDSV4 SAVING "           AG WE" ON UNIT  52 AT TIME STEP  4, STRESS PERIOD   2

 HEAD WILL BE SAVED ON UNIT   51 AT END OF TIME STEP    4, STRESS PERIOD    2
 
 SOLVING FOR HEAD 

    ------------------------------------------------
       NWT REQUIRED            1 OUTER ITERATIONS 
       AND A TOTAL OF          2 INNER ITERATIONS.
    ------------------------------------------------

 OUTPUT CONTROL FOR STRESS PERIOD    2   TIME STEP    5
    SAVE HEAD FOR ALL LAYERS
    SAVE BUDGET
 UBDSV1 SAVING "         STORAGE" ON UNIT  52 AT TIME STEP  5, STRESS PERIOD   2
 UBDSV2 SAVING "   CONSTANT HEAD" ON UNIT  52 AT TIME STEP  5, STRESS PERIOD   2
 UBDSV1 SAVING "FLOW RIGHT FACE " ON UNIT  52 AT TIME STEP  5, STRESS PERIOD   2
 UBDSV1 SAVING "FLOW FRONT FACE " ON UNIT  52 AT TIME STEP  5, STRESS PERIOD   2
 UBDSV4 SAVING "  STREAM LEAKAGE" ON UNIT  52 AT TIME STEP  5, STRESS PERIOD   2



 UBUDSV SAVING "           GW ET" ON UNIT 52 AT TIME STEP  5, STRESS PERIOD    2
 UBUDSV SAVING "    UZF RECHARGE" ON UNIT 52 AT TIME STEP  5, STRESS PERIOD    2
 UBUDSV SAVING " SURFACE LEAKAGE" ON UNIT 52 AT TIME STEP  5, STRESS PERIOD    2
 UBUDSV SAVING "       HORT+DUNN" ON UNIT 52 AT TIME STEP  5, STRESS PERIOD    2
 UBUDSV SAVING "  STORAGE CHANGE" ON UNIT 52 AT TIME STEP  5, STRESS PERIOD    2
 UBDSV4 SAVING "           AG WE" ON UNIT  52 AT TIME STEP  5, STRESS PERIOD   2

 HEAD WILL BE SAVED ON UNIT   51 AT END OF TIME STEP    5, STRESS PERIOD    2
 
 SOLVING FOR HEAD 

    ------------------------------------------------
       NWT REQUIRED            1 OUTER ITERATIONS 
       AND A TOTAL OF          2 INNER ITERATIONS.
    ------------------------------------------------

 OUTPUT CONTROL FOR STRESS PERIOD    2   TIME STEP    6
    SAVE HEAD FOR ALL LAYERS
    SAVE BUDGET
 UBDSV1 SAVING "         STORAGE" ON UNIT  52 AT TIME STEP  6, STRESS PERIOD   2
 UBDSV2 SAVING "   CONSTANT HEAD" ON UNIT  52 AT TIME STEP  6, STRESS PERIOD   2
 UBDSV1 SAVING "FLOW RIGHT FACE " ON UNIT  52 AT TIME STEP  6, STRESS PERIOD   2
 UBDSV1 SAVING "FLOW FRONT FACE " ON UNIT  52 AT TIME STEP  6, STRESS PERIOD   2
 UBDSV4 SAVING "  STREAM LEAKAGE" ON UNIT  52 AT TIME STEP  6, STRESS PERIOD   2



 UBUDSV SAVING "           GW ET" ON UNIT 52 AT TIME STEP  6, STRESS PERIOD    2
 UBUDSV SAVING "    UZF RECHARGE" ON UNIT 52 AT TIME STEP  6, STRESS PERIOD    2
 UBUDSV SAVING " SURFACE LEAKAGE" ON UNIT 52 AT TIME STEP  6, STRESS PERIOD    2
 UBUDSV SAVING "       HORT+DUNN" ON UNIT 52 AT TIME STEP  6, STRESS PERIOD    2
 UBUDSV SAVING "  STORAGE CHANGE" ON UNIT 52 AT TIME STEP  6, STRESS PERIOD    2
 UBDSV4 SAVING "           AG WE" ON UNIT  52 AT TIME STEP  6, STRESS PERIOD   2

 HEAD WILL BE SAVED ON UNIT   51 AT END OF TIME STEP    6, STRESS PERIOD    2
 
 SOLVING FOR HEAD 

    ------------------------------------------------
       NWT REQUIRED            1 OUTER ITERATIONS 
       AND A TOTAL OF          2 INNER ITERATIONS.
    ------------------------------------------------

 OUTPUT CONTROL FOR STRESS PERIOD    2   TIME STEP    7
    SAVE HEAD FOR ALL LAYERS
    SAVE BUDGET
 UBDSV1 SAVING "         STORAGE" ON UNIT  52 AT TIME STEP  7, STRESS PERIOD   2
 UBDSV2 SAVING "   CONSTANT HEAD" ON UNIT  52 AT TIME STEP  7, STRESS PERIOD   2
 UBDSV1 SAVING "FLOW RIGHT FACE " ON UNIT  52 AT TIME STEP  7, STRESS PERIOD   2
 UBDSV1 SAVING "FLOW FRONT FACE " ON UNIT  52 AT TIME STEP  7, STRESS PERIOD   2
 UBDSV4 SAVING "  STREAM LEAKAGE" ON UNIT  52 AT TIME STEP  7, STRESS PERIOD   2



 UBUDSV SAVING "           GW ET" ON UNIT 52 AT TIME STEP  7, STRESS PERIOD    2
 UBUDSV SAVING "    UZF RECHARGE" ON UNIT 52 AT TIME STEP  7, STRESS PERIOD    2
 UBUDSV SAVING " SURFACE LEAKAGE" ON UNIT 52 AT TIME STEP  7, STRESS PERIOD    2
 UBUDSV SAVING "       HORT+DUNN" ON UNIT 52 AT TIME STEP  7, STRESS PERIOD    2
 UBUDSV SAVING "  STORAGE CHANGE" ON UNIT 52 AT TIME STEP  7, STRESS PERIOD    2
 UBDSV4 SAVING "           AG WE" ON UNIT  52 AT TIME STEP  7, STRESS PERIOD   2

 HEAD WILL BE SAVED ON UNIT   51 AT END OF TIME STEP    7, STRESS PERIOD    2
 
 SOLVING FOR HEAD 

    ------------------------------------------------
       NWT REQUIRED            1 OUTER ITERATIONS 
       AND A TOTAL OF          2 INNER ITERATIONS.
    ------------------------------------------------

 OUTPUT CONTROL FOR STRESS PERIOD    2   TIME STEP    8
    SAVE HEAD FOR ALL LAYERS
    SAVE BUDGET
 UBDSV1 SAVING "         STORAGE" ON UNIT  52 AT TIME STEP  8, STRESS PERIOD   2
 UBDSV2 SAVING "   CONSTANT HEAD" ON UNIT  52 AT TIME STEP  8, STRESS PERIOD   2
 UBDSV1 SAVING "FLOW RIGHT FACE " ON UNIT  52 AT TIME STEP  8, STRESS PERIOD   2
 UBDSV1 SAVING "FLOW FRONT FACE " ON UNIT  52 AT TIME STEP  8, STRESS PERIOD   2
 UBDSV4 SAVING "  STREAM LEAKAGE" ON UNIT  52 AT TIME STEP  8, STRESS PERIOD   2



 UBUDSV SAVING "           GW ET" ON UNIT 52 AT TIME STEP  8, STRESS PERIOD    2
 UBUDSV SAVING "    UZF RECHARGE" ON UNIT 52 AT TIME STEP  8, STRESS PERIOD    2
 UBUDSV SAVING " SURFACE LEAKAGE" ON UNIT 52 AT TIME STEP  8, STRESS PERIOD    2
 UBUDSV SAVING "       HORT+DUNN" ON UNIT 52 AT TIME STEP  8, STRESS PERIOD    2
 UBUDSV SAVING "  STORAGE CHANGE" ON UNIT 52 AT TIME STEP  8, STRESS PERIOD    2
 UBDSV4 SAVING "           AG WE" ON UNIT  52 AT TIME STEP  8, STRESS PERIOD   2

 HEAD WILL BE SAVED ON UNIT   51 AT END OF TIME STEP    8, STRESS PERIOD    2
 
 SOLVING FOR HEAD 

    ------------------------------------------------
       NWT REQUIRED            1 OUTER ITERATIONS 
       AND A TOTAL OF          2 INNER ITERATIONS.
    ------------------------------------------------

 OUTPUT CONTROL FOR STRESS PERIOD    2   TIME STEP    9
    SAVE HEAD FOR ALL LAYERS
    SAVE BUDGET
 UBDSV1 SAVING "         STORAGE" ON UNIT  52 AT TIME STEP  9, STRESS PERIOD   2
 UBDSV2 SAVING "   CONSTANT HEAD" ON UNIT  52 AT TIME STEP  9, STRESS PERIOD   2
 UBDSV1 SAVING "FLOW RIGHT FACE " ON UNIT  52 AT TIME STEP  9, STRESS PERIOD   2
 UBDSV1 SAVING "FLOW FRONT FACE " ON UNIT  52 AT TIME STEP  9, STRESS PERIOD   2
 UBDSV4 SAVING "  STREAM LEAKAGE" ON UNIT  52 AT TIME STEP  9, STRESS PERIOD   2



 UBUDSV SAVING "           GW ET" ON UNIT 52 AT TIME STEP  9, STRESS PERIOD    2
 UBUDSV SAVING "    UZF RECHARGE" ON UNIT 52 AT TIME STEP  9, STRESS PERIOD    2
 UBUDSV SAVING " SURFACE LEAKAGE" ON UNIT 52 AT TIME STEP  9, STRESS PERIOD    2
 UBUDSV SAVING "       HORT+DUNN" ON UNIT 52 AT TIME STEP  9, STRESS PERIOD    2
 UBUDSV SAVING "  STORAGE CHANGE" ON UNIT 52 AT TIME STEP  9, STRESS PERIOD    2
 UBDSV4 SAVING "           AG WE" ON UNIT  52 AT TIME STEP  9, STRESS PERIOD   2

 HEAD WILL BE SAVED ON UNIT   51 AT END OF TIME STEP    9, STRESS PERIOD    2
 
 SOLVING FOR HEAD 

    ------------------------------------------------
       NWT REQUIRED            1 OUTER ITERATIONS 
       AND A TOTAL OF          2 INNER ITERATIONS.
    ------------------------------------------------

 OUTPUT CONTROL FOR STRESS PERIOD    2   TIME STEP   10
    SAVE HEAD FOR ALL LAYERS
    SAVE BUDGET
 UBDSV1 SAVING "         STORAGE" ON UNIT  52 AT TIME STEP 10, STRESS PERIOD   2
 UBDSV2 SAVING "   CONSTANT HEAD" ON UNIT  52 AT TIME STEP 10, STRESS PERIOD   2
 UBDSV1 SAVING "FLOW RIGHT FACE " ON UNIT  52 AT TIME STEP 10, STRESS PERIOD   2
 UBDSV1 SAVING "FLOW FRONT FACE " ON UNIT  52 AT TIME STEP 10, STRESS PERIOD   2
 UBDSV4 SAVING "  STREAM LEAKAGE" ON UNIT  52 AT TIME STEP 10, STRESS PERIOD   2



 UBUDSV SAVING "           GW ET" ON UNIT 52 AT TIME STEP 10, STRESS PERIOD    2
 UBUDSV SAVING "    UZF RECHARGE" ON UNIT 52 AT TIME STEP 10, STRESS PERIOD    2
 UBUDSV SAVING " SURFACE LEAKAGE" ON UNIT 52 AT TIME STEP 10, STRESS PERIOD    2
 UBUDSV SAVING "       HORT+DUNN" ON UNIT 52 AT TIME STEP 10, STRESS PERIOD    2
 UBUDSV SAVING "  STORAGE CHANGE" ON UNIT 52 AT TIME STEP 10, STRESS PERIOD    2
 UBDSV4 SAVING "           AG WE" ON UNIT  52 AT TIME STEP 10, STRESS PERIOD   2

 HEAD WILL BE SAVED ON UNIT   51 AT END OF TIME STEP   10, STRESS PERIOD    2
 
 SOLVING FOR HEAD 

    ------------------------------------------------
       NWT REQUIRED            1 OUTER ITERATIONS 
       AND A TOTAL OF          2 INNER ITERATIONS.
    ------------------------------------------------

 OUTPUT CONTROL FOR STRESS PERIOD    2   TIME STEP   11
    SAVE HEAD FOR ALL LAYERS
    SAVE BUDGET
 UBDSV1 SAVING "         STORAGE" ON UNIT  52 AT TIME STEP 11, STRESS PERIOD   2
 UBDSV2 SAVING "   CONSTANT HEAD" ON UNIT  52 AT TIME STEP 11, STRESS PERIOD   2
 UBDSV1 SAVING "FLOW RIGHT FACE " ON UNIT  52 AT TIME STEP 11, STRESS PERIOD   2
 UBDSV1 SAVING "FLOW FRONT FACE " ON UNIT  52 AT TIME STEP 11, STRESS PERIOD   2
 UBDSV4 SAVING "  STREAM LEAKAGE" ON UNIT  52 AT TIME STEP 11, STRESS PERIOD   2



 UBUDSV SAVING "           GW ET" ON UNIT 52 AT TIME STEP 11, STRESS PERIOD    2
 UBUDSV SAVING "    UZF RECHARGE" ON UNIT 52 AT TIME STEP 11, STRESS PERIOD    2
 UBUDSV SAVING " SURFACE LEAKAGE" ON UNIT 52 AT TIME STEP 11, STRESS PERIOD    2
 UBUDSV SAVING "       HORT+DUNN" ON UNIT 52 AT TIME STEP 11, STRESS PERIOD    2
 UBUDSV SAVING "  STORAGE CHANGE" ON UNIT 52 AT TIME STEP 11, STRESS PERIOD    2
 UBDSV4 SAVING "           AG WE" ON UNIT  52 AT TIME STEP 11, STRESS PERIOD   2

 HEAD WILL BE SAVED ON UNIT   51 AT END OF TIME STEP   11, STRESS PERIOD    2
 
 SOLVING FOR HEAD 

    ------------------------------------------------
       NWT REQUIRED            1 OUTER ITERATIONS 
       AND A TOTAL OF          2 INNER ITERATIONS.
    ------------------------------------------------

 OUTPUT CONTROL FOR STRESS PERIOD    2   TIME STEP   12
    SAVE HEAD FOR ALL LAYERS
    SAVE BUDGET
 UBDSV1 SAVING "         STORAGE" ON UNIT  52 AT TIME STEP 12, STRESS PERIOD   2
 UBDSV2 SAVING "   CONSTANT HEAD" ON UNIT  52 AT TIME STEP 12, STRESS PERIOD   2
 UBDSV1 SAVING "FLOW RIGHT FACE " ON UNIT  52 AT TIME STEP 12, STRESS PERIOD   2
 UBDSV1 SAVING "FLOW FRONT FACE " ON UNIT  52 AT TIME STEP 12, STRESS PERIOD   2
 UBDSV4 SAVING "  STREAM LEAKAGE" ON UNIT  52 AT TIME STEP 12, STRESS PERIOD   2



 UBUDSV SAVING "           GW ET" ON UNIT 52 AT TIME STEP 12, STRESS PERIOD    2
 UBUDSV SAVING "    UZF RECHARGE" ON UNIT 52 AT TIME STEP 12, STRESS PERIOD    2
 UBUDSV SAVING " SURFACE LEAKAGE" ON UNIT 52 AT TIME STEP 12, STRESS PERIOD    2
 UBUDSV SAVING "       HORT+DUNN" ON UNIT 52 AT TIME STEP 12, STRESS PERIOD    2
 UBUDSV SAVING "  STORAGE CHANGE" ON UNIT 52 AT TIME STEP 12, STRESS PERIOD    2
 UBDSV4 SAVING "           AG WE" ON UNIT  52 AT TIME STEP 12, STRESS PERIOD   2

 HEAD WILL BE SAVED ON UNIT   51 AT END OF TIME STEP   12, STRESS PERIOD    2
 
 SOLVING FOR HEAD 

    ------------------------------------------------
       NWT REQUIRED            1 OUTER ITERATIONS 
       AND A TOTAL OF          2 INNER ITERATIONS.
    ------------------------------------------------

 OUTPUT CONTROL FOR STRESS PERIOD    2   TIME STEP   13
    SAVE HEAD FOR ALL LAYERS
    SAVE BUDGET
 UBDSV1 SAVING "         STORAGE" ON UNIT  52 AT TIME STEP 13, STRESS PERIOD   2
 UBDSV2 SAVING "   CONSTANT HEAD" ON UNIT  52 AT TIME STEP 13, STRESS PERIOD   2
 UBDSV1 SAVING "FLOW RIGHT FACE " ON UNIT  52 AT TIME STEP 13, STRESS PERIOD   2
 UBDSV1 SAVING "FLOW FRONT FACE " ON UNIT  52 AT TIME STEP 13, STRESS PERIOD   2
 UBDSV4 SAVING "  STREAM LEAKAGE" ON UNIT  52 AT TIME STEP 13, STRESS PERIOD   2



 UBUDSV SAVING "           GW ET" ON UNIT 52 AT TIME STEP 13, STRESS PERIOD    2
 UBUDSV SAVING "    UZF RECHARGE" ON UNIT 52 AT TIME STEP 13, STRESS PERIOD    2
 UBUDSV SAVING " SURFACE LEAKAGE" ON UNIT 52 AT TIME STEP 13, STRESS PERIOD    2
 UBUDSV SAVING "       HORT+DUNN" ON UNIT 52 AT TIME STEP 13, STRESS PERIOD    2
 UBUDSV SAVING "  STORAGE CHANGE" ON UNIT 52 AT TIME STEP 13, STRESS PERIOD    2
 UBDSV4 SAVING "           AG WE" ON UNIT  52 AT TIME STEP 13, STRESS PERIOD   2

 HEAD WILL BE SAVED ON UNIT   51 AT END OF TIME STEP   13, STRESS PERIOD    2
 
 SOLVING FOR HEAD 

    ------------------------------------------------
       NWT REQUIRED            1 OUTER ITERATIONS 
       AND A TOTAL OF          2 INNER ITERATIONS.
    ------------------------------------------------

 OUTPUT CONTROL FOR STRESS PERIOD    2   TIME STEP   14
    SAVE HEAD FOR ALL LAYERS
    SAVE BUDGET
 UBDSV1 SAVING "         STORAGE" ON UNIT  52 AT TIME STEP 14, STRESS PERIOD   2
 UBDSV2 SAVING "   CONSTANT HEAD" ON UNIT  52 AT TIME STEP 14, STRESS PERIOD   2
 UBDSV1 SAVING "FLOW RIGHT FACE " ON UNIT  52 AT TIME STEP 14, STRESS PERIOD   2
 UBDSV1 SAVING "FLOW FRONT FACE " ON UNIT  52 AT TIME STEP 14, STRESS PERIOD   2
 UBDSV4 SAVING "  STREAM LEAKAGE" ON UNIT  52 AT TIME STEP 14, STRESS PERIOD   2



 UBUDSV SAVING "           GW ET" ON UNIT 52 AT TIME STEP 14, STRESS PERIOD    2
 UBUDSV SAVING "    UZF RECHARGE" ON UNIT 52 AT TIME STEP 14, STRESS PERIOD    2
 UBUDSV SAVING " SURFACE LEAKAGE" ON UNIT 52 AT TIME STEP 14, STRESS PERIOD    2
 UBUDSV SAVING "       HORT+DUNN" ON UNIT 52 AT TIME STEP 14, STRESS PERIOD    2
 UBUDSV SAVING "  STORAGE CHANGE" ON UNIT 52 AT TIME STEP 14, STRESS PERIOD    2
 UBDSV4 SAVING "           AG WE" ON UNIT  52 AT TIME STEP 14, STRESS PERIOD   2

 HEAD WILL BE SAVED ON UNIT   51 AT END OF TIME STEP   14, STRESS PERIOD    2
 
 SOLVING FOR HEAD 

    ------------------------------------------------
       NWT REQUIRED            1 OUTER ITERATIONS 
       AND A TOTAL OF          2 INNER ITERATIONS.
    ------------------------------------------------

 OUTPUT CONTROL FOR STRESS PERIOD    2   TIME STEP   15
    SAVE HEAD FOR ALL LAYERS
    SAVE BUDGET
 UBDSV1 SAVING "         STORAGE" ON UNIT  52 AT TIME STEP 15, STRESS PERIOD   2
 UBDSV2 SAVING "   CONSTANT HEAD" ON UNIT  52 AT TIME STEP 15, STRESS PERIOD   2
 UBDSV1 SAVING "FLOW RIGHT FACE " ON UNIT  52 AT TIME STEP 15, STRESS PERIOD   2
 UBDSV1 SAVING "FLOW FRONT FACE " ON UNIT  52 AT TIME STEP 15, STRESS PERIOD   2
 UBDSV4 SAVING "  STREAM LEAKAGE" ON UNIT  52 AT TIME STEP 15, STRESS PERIOD   2



 UBUDSV SAVING "           GW ET" ON UNIT 52 AT TIME STEP 15, STRESS PERIOD    2
 UBUDSV SAVING "    UZF RECHARGE" ON UNIT 52 AT TIME STEP 15, STRESS PERIOD    2
 UBUDSV SAVING " SURFACE LEAKAGE" ON UNIT 52 AT TIME STEP 15, STRESS PERIOD    2
 UBUDSV SAVING "       HORT+DUNN" ON UNIT 52 AT TIME STEP 15, STRESS PERIOD    2
 UBUDSV SAVING "  STORAGE CHANGE" ON UNIT 52 AT TIME STEP 15, STRESS PERIOD    2
 UBDSV4 SAVING "           AG WE" ON UNIT  52 AT TIME STEP 15, STRESS PERIOD   2

 HEAD WILL BE SAVED ON UNIT   51 AT END OF TIME STEP   15, STRESS PERIOD    2
 
 SOLVING FOR HEAD 

    ------------------------------------------------
       NWT REQUIRED            1 OUTER ITERATIONS 
       AND A TOTAL OF          2 INNER ITERATIONS.
    ------------------------------------------------

 OUTPUT CONTROL FOR STRESS PERIOD    2   TIME STEP   16
    SAVE HEAD FOR ALL LAYERS
    SAVE BUDGET
 UBDSV1 SAVING "         STORAGE" ON UNIT  52 AT TIME STEP 16, STRESS PERIOD   2
 UBDSV2 SAVING "   CONSTANT HEAD" ON UNIT  52 AT TIME STEP 16, STRESS PERIOD   2
 UBDSV1 SAVING "FLOW RIGHT FACE " ON UNIT  52 AT TIME STEP 16, STRESS PERIOD   2
 UBDSV1 SAVING "FLOW FRONT FACE " ON UNIT  52 AT TIME STEP 16, STRESS PERIOD   2
 UBDSV4 SAVING "  STREAM LEAKAGE" ON UNIT  52 AT TIME STEP 16, STRESS PERIOD   2



 UBUDSV SAVING "           GW ET" ON UNIT 52 AT TIME STEP 16, STRESS PERIOD    2
 UBUDSV SAVING "    UZF RECHARGE" ON UNIT 52 AT TIME STEP 16, STRESS PERIOD    2
 UBUDSV SAVING " SURFACE LEAKAGE" ON UNIT 52 AT TIME STEP 16, STRESS PERIOD    2
 UBUDSV SAVING "       HORT+DUNN" ON UNIT 52 AT TIME STEP 16, STRESS PERIOD    2
 UBUDSV SAVING "  STORAGE CHANGE" ON UNIT 52 AT TIME STEP 16, STRESS PERIOD    2
 UBDSV4 SAVING "           AG WE" ON UNIT  52 AT TIME STEP 16, STRESS PERIOD   2

 HEAD WILL BE SAVED ON UNIT   51 AT END OF TIME STEP   16, STRESS PERIOD    2
 
 SOLVING FOR HEAD 

    ------------------------------------------------
       NWT REQUIRED            1 OUTER ITERATIONS 
       AND A TOTAL OF          2 INNER ITERATIONS.
    ------------------------------------------------

 OUTPUT CONTROL FOR STRESS PERIOD    2   TIME STEP   17
    SAVE HEAD FOR ALL LAYERS
    SAVE BUDGET
 UBDSV1 SAVING "         STORAGE" ON UNIT  52 AT TIME STEP 17, STRESS PERIOD   2
 UBDSV2 SAVING "   CONSTANT HEAD" ON UNIT  52 AT TIME STEP 17, STRESS PERIOD   2
 UBDSV1 SAVING "FLOW RIGHT FACE " ON UNIT  52 AT TIME STEP 17, STRESS PERIOD   2
 UBDSV1 SAVING "FLOW FRONT FACE " ON UNIT  52 AT TIME STEP 17, STRESS PERIOD   2
 UBDSV4 SAVING "  STREAM LEAKAGE" ON UNIT  52 AT TIME STEP 17, STRESS PERIOD   2



 UBUDSV SAVING "           GW ET" ON UNIT 52 AT TIME STEP 17, STRESS PERIOD    2
 UBUDSV SAVING "    UZF RECHARGE" ON UNIT 52 AT TIME STEP 17, STRESS PERIOD    2
 UBUDSV SAVING " SURFACE LEAKAGE" ON UNIT 52 AT TIME STEP 17, STRESS PERIOD    2
 UBUDSV SAVING "       HORT+DUNN" ON UNIT 52 AT TIME STEP 17, STRESS PERIOD    2
 UBUDSV SAVING "  STORAGE CHANGE" ON UNIT 52 AT TIME STEP 17, STRESS PERIOD    2
 UBDSV4 SAVING "           AG WE" ON UNIT  52 AT TIME STEP 17, STRESS PERIOD   2

 HEAD WILL BE SAVED ON UNIT   51 AT END OF TIME STEP   17, STRESS PERIOD    2
 
 SOLVING FOR HEAD 

    ------------------------------------------------
       NWT REQUIRED            1 OUTER ITERATIONS 
       AND A TOTAL OF          2 INNER ITERATIONS.
    ------------------------------------------------

 OUTPUT CONTROL FOR STRESS PERIOD    2   TIME STEP   18
    SAVE HEAD FOR ALL LAYERS
    SAVE BUDGET
 UBDSV1 SAVING "         STORAGE" ON UNIT  52 AT TIME STEP 18, STRESS PERIOD   2
 UBDSV2 SAVING "   CONSTANT HEAD" ON UNIT  52 AT TIME STEP 18, STRESS PERIOD   2
 UBDSV1 SAVING "FLOW RIGHT FACE " ON UNIT  52 AT TIME STEP 18, STRESS PERIOD   2
 UBDSV1 SAVING "FLOW FRONT FACE " ON UNIT  52 AT TIME STEP 18, STRESS PERIOD   2
 UBDSV4 SAVING "  STREAM LEAKAGE" ON UNIT  52 AT TIME STEP 18, STRESS PERIOD   2



 UBUDSV SAVING "           GW ET" ON UNIT 52 AT TIME STEP 18, STRESS PERIOD    2
 UBUDSV SAVING "    UZF RECHARGE" ON UNIT 52 AT TIME STEP 18, STRESS PERIOD    2
 UBUDSV SAVING " SURFACE LEAKAGE" ON UNIT 52 AT TIME STEP 18, STRESS PERIOD    2
 UBUDSV SAVING "       HORT+DUNN" ON UNIT 52 AT TIME STEP 18, STRESS PERIOD    2
 UBUDSV SAVING "  STORAGE CHANGE" ON UNIT 52 AT TIME STEP 18, STRESS PERIOD    2
 UBDSV4 SAVING "           AG WE" ON UNIT  52 AT TIME STEP 18, STRESS PERIOD   2

 HEAD WILL BE SAVED ON UNIT   51 AT END OF TIME STEP   18, STRESS PERIOD    2
 
 SOLVING FOR HEAD 

    ------------------------------------------------
       NWT REQUIRED            1 OUTER ITERATIONS 
       AND A TOTAL OF          2 INNER ITERATIONS.
    ------------------------------------------------

 OUTPUT CONTROL FOR STRESS PERIOD    2   TIME STEP   19
    SAVE HEAD FOR ALL LAYERS
    SAVE BUDGET
 UBDSV1 SAVING "         STORAGE" ON UNIT  52 AT TIME STEP 19, STRESS PERIOD   2
 UBDSV2 SAVING "   CONSTANT HEAD" ON UNIT  52 AT TIME STEP 19, STRESS PERIOD   2
 UBDSV1 SAVING "FLOW RIGHT FACE " ON UNIT  52 AT TIME STEP 19, STRESS PERIOD   2
 UBDSV1 SAVING "FLOW FRONT FACE " ON UNIT  52 AT TIME STEP 19, STRESS PERIOD   2
 UBDSV4 SAVING "  STREAM LEAKAGE" ON UNIT  52 AT TIME STEP 19, STRESS PERIOD   2



 UBUDSV SAVING "           GW ET" ON UNIT 52 AT TIME STEP 19, STRESS PERIOD    2
 UBUDSV SAVING "    UZF RECHARGE" ON UNIT 52 AT TIME STEP 19, STRESS PERIOD    2
 UBUDSV SAVING " SURFACE LEAKAGE" ON UNIT 52 AT TIME STEP 19, STRESS PERIOD    2
 UBUDSV SAVING "       HORT+DUNN" ON UNIT 52 AT TIME STEP 19, STRESS PERIOD    2
 UBUDSV SAVING "  STORAGE CHANGE" ON UNIT 52 AT TIME STEP 19, STRESS PERIOD    2
 UBDSV4 SAVING "           AG WE" ON UNIT  52 AT TIME STEP 19, STRESS PERIOD   2

 HEAD WILL BE SAVED ON UNIT   51 AT END OF TIME STEP   19, STRESS PERIOD    2
 
 SOLVING FOR HEAD 

    ------------------------------------------------
       NWT REQUIRED            1 OUTER ITERATIONS 
       AND A TOTAL OF          2 INNER ITERATIONS.
    ------------------------------------------------

 OUTPUT CONTROL FOR STRESS PERIOD    2   TIME STEP   20
    SAVE HEAD FOR ALL LAYERS
    SAVE BUDGET
 UBDSV1 SAVING "         STORAGE" ON UNIT  52 AT TIME STEP 20, STRESS PERIOD   2
 UBDSV2 SAVING "   CONSTANT HEAD" ON UNIT  52 AT TIME STEP 20, STRESS PERIOD   2
 UBDSV1 SAVING "FLOW RIGHT FACE " ON UNIT  52 AT TIME STEP 20, STRESS PERIOD   2
 UBDSV1 SAVING "FLOW FRONT FACE " ON UNIT  52 AT TIME STEP 20, STRESS PERIOD   2
 UBDSV4 SAVING "  STREAM LEAKAGE" ON UNIT  52 AT TIME STEP 20, STRESS PERIOD   2



 UBUDSV SAVING "           GW ET" ON UNIT 52 AT TIME STEP 20, STRESS PERIOD    2
 UBUDSV SAVING "    UZF RECHARGE" ON UNIT 52 AT TIME STEP 20, STRESS PERIOD    2
 UBUDSV SAVING " SURFACE LEAKAGE" ON UNIT 52 AT TIME STEP 20, STRESS PERIOD    2
 UBUDSV SAVING "       HORT+DUNN" ON UNIT 52 AT TIME STEP 20, STRESS PERIOD    2
 UBUDSV SAVING "  STORAGE CHANGE" ON UNIT 52 AT TIME STEP 20, STRESS PERIOD    2
 UBDSV4 SAVING "           AG WE" ON UNIT  52 AT TIME STEP 20, STRESS PERIOD   2

 HEAD WILL BE SAVED ON UNIT   51 AT END OF TIME STEP   20, STRESS PERIOD    2
 
 SOLVING FOR HEAD 

    ------------------------------------------------
       NWT REQUIRED            1 OUTER ITERATIONS 
       AND A TOTAL OF          2 INNER ITERATIONS.
    ------------------------------------------------

 OUTPUT CONTROL FOR STRESS PERIOD    2   TIME STEP   21
    SAVE HEAD FOR ALL LAYERS
    SAVE BUDGET
 UBDSV1 SAVING "         STORAGE" ON UNIT  52 AT TIME STEP 21, STRESS PERIOD   2
 UBDSV2 SAVING "   CONSTANT HEAD" ON UNIT  52 AT TIME STEP 21, STRESS PERIOD   2
 UBDSV1 SAVING "FLOW RIGHT FACE " ON UNIT  52 AT TIME STEP 21, STRESS PERIOD   2
 UBDSV1 SAVING "FLOW FRONT FACE " ON UNIT  52 AT TIME STEP 21, STRESS PERIOD   2
 UBDSV4 SAVING "  STREAM LEAKAGE" ON UNIT  52 AT TIME STEP 21, STRESS PERIOD   2



 UBUDSV SAVING "           GW ET" ON UNIT 52 AT TIME STEP 21, STRESS PERIOD    2
 UBUDSV SAVING "    UZF RECHARGE" ON UNIT 52 AT TIME STEP 21, STRESS PERIOD    2
 UBUDSV SAVING " SURFACE LEAKAGE" ON UNIT 52 AT TIME STEP 21, STRESS PERIOD    2
 UBUDSV SAVING "       HORT+DUNN" ON UNIT 52 AT TIME STEP 21, STRESS PERIOD    2
 UBUDSV SAVING "  STORAGE CHANGE" ON UNIT 52 AT TIME STEP 21, STRESS PERIOD    2
 UBDSV4 SAVING "           AG WE" ON UNIT  52 AT TIME STEP 21, STRESS PERIOD   2

 HEAD WILL BE SAVED ON UNIT   51 AT END OF TIME STEP   21, STRESS PERIOD    2
 
 SOLVING FOR HEAD 

    ------------------------------------------------
       NWT REQUIRED            1 OUTER ITERATIONS 
       AND A TOTAL OF          2 INNER ITERATIONS.
    ------------------------------------------------

 OUTPUT CONTROL FOR STRESS PERIOD    2   TIME STEP   22
    SAVE HEAD FOR ALL LAYERS
    SAVE BUDGET
 UBDSV1 SAVING "         STORAGE" ON UNIT  52 AT TIME STEP 22, STRESS PERIOD   2
 UBDSV2 SAVING "   CONSTANT HEAD" ON UNIT  52 AT TIME STEP 22, STRESS PERIOD   2
 UBDSV1 SAVING "FLOW RIGHT FACE " ON UNIT  52 AT TIME STEP 22, STRESS PERIOD   2
 UBDSV1 SAVING "FLOW FRONT FACE " ON UNIT  52 AT TIME STEP 22, STRESS PERIOD   2
 UBDSV4 SAVING "  STREAM LEAKAGE" ON UNIT  52 AT TIME STEP 22, STRESS PERIOD   2



 UBUDSV SAVING "           GW ET" ON UNIT 52 AT TIME STEP 22, STRESS PERIOD    2
 UBUDSV SAVING "    UZF RECHARGE" ON UNIT 52 AT TIME STEP 22, STRESS PERIOD    2
 UBUDSV SAVING " SURFACE LEAKAGE" ON UNIT 52 AT TIME STEP 22, STRESS PERIOD    2
 UBUDSV SAVING "       HORT+DUNN" ON UNIT 52 AT TIME STEP 22, STRESS PERIOD    2
 UBUDSV SAVING "  STORAGE CHANGE" ON UNIT 52 AT TIME STEP 22, STRESS PERIOD    2
 UBDSV4 SAVING "           AG WE" ON UNIT  52 AT TIME STEP 22, STRESS PERIOD   2

 HEAD WILL BE SAVED ON UNIT   51 AT END OF TIME STEP   22, STRESS PERIOD    2
 
 SOLVING FOR HEAD 

    ------------------------------------------------
       NWT REQUIRED            1 OUTER ITERATIONS 
       AND A TOTAL OF          2 INNER ITERATIONS.
    ------------------------------------------------

 OUTPUT CONTROL FOR STRESS PERIOD    2   TIME STEP   23
    SAVE HEAD FOR ALL LAYERS
    SAVE BUDGET
 UBDSV1 SAVING "         STORAGE" ON UNIT  52 AT TIME STEP 23, STRESS PERIOD   2
 UBDSV2 SAVING "   CONSTANT HEAD" ON UNIT  52 AT TIME STEP 23, STRESS PERIOD   2
 UBDSV1 SAVING "FLOW RIGHT FACE " ON UNIT  52 AT TIME STEP 23, STRESS PERIOD   2
 UBDSV1 SAVING "FLOW FRONT FACE " ON UNIT  52 AT TIME STEP 23, STRESS PERIOD   2
 UBDSV4 SAVING "  STREAM LEAKAGE" ON UNIT  52 AT TIME STEP 23, STRESS PERIOD   2



 UBUDSV SAVING "           GW ET" ON UNIT 52 AT TIME STEP 23, STRESS PERIOD    2
 UBUDSV SAVING "    UZF RECHARGE" ON UNIT 52 AT TIME STEP 23, STRESS PERIOD    2
 UBUDSV SAVING " SURFACE LEAKAGE" ON UNIT 52 AT TIME STEP 23, STRESS PERIOD    2
 UBUDSV SAVING "       HORT+DUNN" ON UNIT 52 AT TIME STEP 23, STRESS PERIOD    2
 UBUDSV SAVING "  STORAGE CHANGE" ON UNIT 52 AT TIME STEP 23, STRESS PERIOD    2
 UBDSV4 SAVING "           AG WE" ON UNIT  52 AT TIME STEP 23, STRESS PERIOD   2

 HEAD WILL BE SAVED ON UNIT   51 AT END OF TIME STEP   23, STRESS PERIOD    2
 
 SOLVING FOR HEAD 

    ------------------------------------------------
       NWT REQUIRED            1 OUTER ITERATIONS 
       AND A TOTAL OF          2 INNER ITERATIONS.
    ------------------------------------------------

 OUTPUT CONTROL FOR STRESS PERIOD    2   TIME STEP   24
    SAVE HEAD FOR ALL LAYERS
    SAVE BUDGET
 UBDSV1 SAVING "         STORAGE" ON UNIT  52 AT TIME STEP 24, STRESS PERIOD   2
 UBDSV2 SAVING "   CONSTANT HEAD" ON UNIT  52 AT TIME STEP 24, STRESS PERIOD   2
 UBDSV1 SAVING "FLOW RIGHT FACE " ON UNIT  52 AT TIME STEP 24, STRESS PERIOD   2
 UBDSV1 SAVING "FLOW FRONT FACE " ON UNIT  52 AT TIME STEP 24, STRESS PERIOD   2
 UBDSV4 SAVING "  STREAM LEAKAGE" ON UNIT  52 AT TIME STEP 24, STRESS PERIOD   2



 UBUDSV SAVING "           GW ET" ON UNIT 52 AT TIME STEP 24, STRESS PERIOD    2
 UBUDSV SAVING "    UZF RECHARGE" ON UNIT 52 AT TIME STEP 24, STRESS PERIOD    2
 UBUDSV SAVING " SURFACE LEAKAGE" ON UNIT 52 AT TIME STEP 24, STRESS PERIOD    2
 UBUDSV SAVING "       HORT+DUNN" ON UNIT 52 AT TIME STEP 24, STRESS PERIOD    2
 UBUDSV SAVING "  STORAGE CHANGE" ON UNIT 52 AT TIME STEP 24, STRESS PERIOD    2
 UBDSV4 SAVING "           AG WE" ON UNIT  52 AT TIME STEP 24, STRESS PERIOD   2

 HEAD WILL BE SAVED ON UNIT   51 AT END OF TIME STEP   24, STRESS PERIOD    2
 
 SOLVING FOR HEAD 

    ------------------------------------------------
       NWT REQUIRED            1 OUTER ITERATIONS 
       AND A TOTAL OF          2 INNER ITERATIONS.
    ------------------------------------------------

 OUTPUT CONTROL FOR STRESS PERIOD    2   TIME STEP   25
    SAVE HEAD FOR ALL LAYERS
    SAVE BUDGET
 UBDSV1 SAVING "         STORAGE" ON UNIT  52 AT TIME STEP 25, STRESS PERIOD   2
 UBDSV2 SAVING "   CONSTANT HEAD" ON UNIT  52 AT TIME STEP 25, STRESS PERIOD   2
 UBDSV1 SAVING "FLOW RIGHT FACE " ON UNIT  52 AT TIME STEP 25, STRESS PERIOD   2
 UBDSV1 SAVING "FLOW FRONT FACE " ON UNIT  52 AT TIME STEP 25, STRESS PERIOD   2
 UBDSV4 SAVING "  STREAM LEAKAGE" ON UNIT  52 AT TIME STEP 25, STRESS PERIOD   2



 UBUDSV SAVING "           GW ET" ON UNIT 52 AT TIME STEP 25, STRESS PERIOD    2
 UBUDSV SAVING "    UZF RECHARGE" ON UNIT 52 AT TIME STEP 25, STRESS PERIOD    2
 UBUDSV SAVING " SURFACE LEAKAGE" ON UNIT 52 AT TIME STEP 25, STRESS PERIOD    2
 UBUDSV SAVING "       HORT+DUNN" ON UNIT 52 AT TIME STEP 25, STRESS PERIOD    2
 UBUDSV SAVING "  STORAGE CHANGE" ON UNIT 52 AT TIME STEP 25, STRESS PERIOD    2
 UBDSV4 SAVING "           AG WE" ON UNIT  52 AT TIME STEP 25, STRESS PERIOD   2

 HEAD WILL BE SAVED ON UNIT   51 AT END OF TIME STEP   25, STRESS PERIOD    2
 
 SOLVING FOR HEAD 

    ------------------------------------------------
       NWT REQUIRED            1 OUTER ITERATIONS 
       AND A TOTAL OF          2 INNER ITERATIONS.
    ------------------------------------------------

 OUTPUT CONTROL FOR STRESS PERIOD    2   TIME STEP   26
    SAVE HEAD FOR ALL LAYERS
    SAVE BUDGET
 UBDSV1 SAVING "         STORAGE" ON UNIT  52 AT TIME STEP 26, STRESS PERIOD   2
 UBDSV2 SAVING "   CONSTANT HEAD" ON UNIT  52 AT TIME STEP 26, STRESS PERIOD   2
 UBDSV1 SAVING "FLOW RIGHT FACE " ON UNIT  52 AT TIME STEP 26, STRESS PERIOD   2
 UBDSV1 SAVING "FLOW FRONT FACE " ON UNIT  52 AT TIME STEP 26, STRESS PERIOD   2
 UBDSV4 SAVING "  STREAM LEAKAGE" ON UNIT  52 AT TIME STEP 26, STRESS PERIOD   2



 UBUDSV SAVING "           GW ET" ON UNIT 52 AT TIME STEP 26, STRESS PERIOD    2
 UBUDSV SAVING "    UZF RECHARGE" ON UNIT 52 AT TIME STEP 26, STRESS PERIOD    2
 UBUDSV SAVING " SURFACE LEAKAGE" ON UNIT 52 AT TIME STEP 26, STRESS PERIOD    2
 UBUDSV SAVING "       HORT+DUNN" ON UNIT 52 AT TIME STEP 26, STRESS PERIOD    2
 UBUDSV SAVING "  STORAGE CHANGE" ON UNIT 52 AT TIME STEP 26, STRESS PERIOD    2
 UBDSV4 SAVING "           AG WE" ON UNIT  52 AT TIME STEP 26, STRESS PERIOD   2

 HEAD WILL BE SAVED ON UNIT   51 AT END OF TIME STEP   26, STRESS PERIOD    2
 
 SOLVING FOR HEAD 

    ------------------------------------------------
       NWT REQUIRED            1 OUTER ITERATIONS 
       AND A TOTAL OF          2 INNER ITERATIONS.
    ------------------------------------------------

 OUTPUT CONTROL FOR STRESS PERIOD    2   TIME STEP   27
    SAVE HEAD FOR ALL LAYERS
    SAVE BUDGET
 UBDSV1 SAVING "         STORAGE" ON UNIT  52 AT TIME STEP 27, STRESS PERIOD   2
 UBDSV2 SAVING "   CONSTANT HEAD" ON UNIT  52 AT TIME STEP 27, STRESS PERIOD   2
 UBDSV1 SAVING "FLOW RIGHT FACE " ON UNIT  52 AT TIME STEP 27, STRESS PERIOD   2
 UBDSV1 SAVING "FLOW FRONT FACE " ON UNIT  52 AT TIME STEP 27, STRESS PERIOD   2
 UBDSV4 SAVING "  STREAM LEAKAGE" ON UNIT  52 AT TIME STEP 27, STRESS PERIOD   2



 UBUDSV SAVING "           GW ET" ON UNIT 52 AT TIME STEP 27, STRESS PERIOD    2
 UBUDSV SAVING "    UZF RECHARGE" ON UNIT 52 AT TIME STEP 27, STRESS PERIOD    2
 UBUDSV SAVING " SURFACE LEAKAGE" ON UNIT 52 AT TIME STEP 27, STRESS PERIOD    2
 UBUDSV SAVING "       HORT+DUNN" ON UNIT 52 AT TIME STEP 27, STRESS PERIOD    2
 UBUDSV SAVING "  STORAGE CHANGE" ON UNIT 52 AT TIME STEP 27, STRESS PERIOD    2
 UBDSV4 SAVING "           AG WE" ON UNIT  52 AT TIME STEP 27, STRESS PERIOD   2

 HEAD WILL BE SAVED ON UNIT   51 AT END OF TIME STEP   27, STRESS PERIOD    2
 
 SOLVING FOR HEAD 

    ------------------------------------------------
       NWT REQUIRED            1 OUTER ITERATIONS 
       AND A TOTAL OF          2 INNER ITERATIONS.
    ------------------------------------------------

 OUTPUT CONTROL FOR STRESS PERIOD    2   TIME STEP   28
    SAVE HEAD FOR ALL LAYERS
    SAVE BUDGET
 UBDSV1 SAVING "         STORAGE" ON UNIT  52 AT TIME STEP 28, STRESS PERIOD   2
 UBDSV2 SAVING "   CONSTANT HEAD" ON UNIT  52 AT TIME STEP 28, STRESS PERIOD   2
 UBDSV1 SAVING "FLOW RIGHT FACE " ON UNIT  52 AT TIME STEP 28, STRESS PERIOD   2
 UBDSV1 SAVING "FLOW FRONT FACE " ON UNIT  52 AT TIME STEP 28, STRESS PERIOD   2
 UBDSV4 SAVING "  STREAM LEAKAGE" ON UNIT  52 AT TIME STEP 28, STRESS PERIOD   2



 UBUDSV SAVING "           GW ET" ON UNIT 52 AT TIME STEP 28, STRESS PERIOD    2
 UBUDSV SAVING "    UZF RECHARGE" ON UNIT 52 AT TIME STEP 28, STRESS PERIOD    2
 UBUDSV SAVING " SURFACE LEAKAGE" ON UNIT 52 AT TIME STEP 28, STRESS PERIOD    2
 UBUDSV SAVING "       HORT+DUNN" ON UNIT 52 AT TIME STEP 28, STRESS PERIOD    2
 UBUDSV SAVING "  STORAGE CHANGE" ON UNIT 52 AT TIME STEP 28, STRESS PERIOD    2


UNSATURATED ZONE PACKAGE VOLUMETRIC BUDGET FOR  TIME STEP    28 STRESS PERIOD    2
  ------------------------------------------------------------------------------



     CUMULATIVE VOLUMES      L**3       RATES FOR THIS TIME STEP      L**3/T
     ------------------                 ------------------------

           IN:                                      IN:
           ---                                      ---
        INFILTRATION =       71722.6717          INFILTRATION =        1317.1856

          OUT:                                     OUT:
          ----                                     ----
              UZF ET =       34004.5301                UZF ET =         672.8511
        UZF RECHARGE =        2510.9042          UZF RECHARGE =          40.7152

            IN - OUT =       35207.2373              IN - OUT =         603.6193

          STORAGE:                                 STORAGE:
          --------                                 --------
      STORAGE CHANGE =       35207.2375        STORAGE CHANGE =         603.6193

 PERCENT DISCREPANCY IS DIFFERENCE BETWEEN IN-OUT MINUS CHANGE IN STORAGE
 DIVIDED BY THE AVERAGE OF IN AND OUT TIMES 100

 PERCENT DISCREPANCY =           0.00     PERCENT DISCREPANCY =           0.00






 UBDSV4 SAVING "           AG WE" ON UNIT  52 AT TIME STEP 28, STRESS PERIOD   2
1
  VOLUMETRIC BUDGET FOR AGRICULTURAL FIELDS AT TIME STEP   28, STRESS PERIOD   2
  ------------------------------------------------------------------------------

     CUMULATIVE VOLUMES      L**3       RATES FOR THIS TIME STEP      L**3/T
     ------------------                 ------------------------

           IN:                                      IN:
           ---                                      ---
               AG WELLS  =           0.0000                 AG WELLS  =           0.0000
      DIVERSION SEGMENTS =           8.3662        DIVERSION SEGMENTS =           3.1805
           GW IRRIGATION =           0.0000             GW IRRIGATION =           0.0000
           SW IRRIGATION =           0.0000             SW IRRIGATION =           0.0000
        SYSTEM LOSSES GW =           0.0000          SYSTEM LOSSES GW =           0.0000
        SYSTEM LOSSES SW =           0.0000          SYSTEM LOSSES SW =           0.0000

                TOTAL IN =           8.3662                  TOTAL IN =           3.1805

          OUT:                                     OUT:
          ----                                     ----
               AG WELLS  =           0.0000                 AG WELLS  =           0.0000
      DIVERSION SEGMENTS =           0.0000        DIVERSION SEGMENTS =           0.0000
           GW IRRIGATION =           0.0000             GW IRRIGATION =           0.0000
           SW IRRIGATION =           8.3662             SW IRRIGATION =           3.1805
        SYSTEM LOSSES GW =           0.0000          SYSTEM LOSSES GW =           0.0000
        SYSTEM LOSSES SW =           0.0000          SYSTEM LOSSES SW =           0.0000

               TOTAL OUT =           8.3662                 TOTAL OUT =           3.1805

                IN - OUT =           0.0000                  IN - OUT =           0.0000

     PERCENT DISCREPANCY =           0.00         PERCENT DISCREPANCY =           0.00




 HEAD WILL BE SAVED ON UNIT   51 AT END OF TIME STEP   28, STRESS PERIOD    2
1
  VOLUMETRIC BUDGET FOR ENTIRE MODEL AT END OF TIME STEP   28, STRESS PERIOD   2
  ------------------------------------------------------------------------------

     CUMULATIVE VOLUMES      L**3       RATES FOR THIS TIME STEP      L**3/T
     ------------------                 ------------------------

           IN:                                      IN:
           ---                                      ---
             STORAGE     =           0.0000               STORAGE     =           0.0000
       CONSTANT HEAD     =           0.0000         CONSTANT HEAD     =           0.0000
      STREAM LEAKAGE     =           4.4854        STREAM LEAKAGE     =       7.6023E-02
        UZF RECHARGE     =        2510.9043          UZF RECHARGE     =          40.7152
               GW ET     =           0.0000                 GW ET     =           0.0000
     SURFACE LEAKAGE     =           0.0000       SURFACE LEAKAGE     =           0.0000
           AG WELLS      =           0.0000             AG WELLS      =           0.0000

                TOTAL IN =        2515.3896                  TOTAL IN =          40.7912

          OUT:                                     OUT:
          ----                                     ----
             STORAGE     =        2271.2598               STORAGE     =          36.8885
       CONSTANT HEAD     =           0.0000         CONSTANT HEAD     =           0.0000
      STREAM LEAKAGE     =           0.0000        STREAM LEAKAGE     =           0.0000
        UZF RECHARGE     =           0.0000          UZF RECHARGE     =           0.0000
               GW ET     =           0.0000                 GW ET     =           0.0000
     SURFACE LEAKAGE     =           0.0000       SURFACE LEAKAGE     =           0.0000
           AG WELLS      =           0.0000             AG WELLS      =           0.0000

               TOTAL OUT =        2271.2598                 TOTAL OUT =          36.8885

                IN - OUT =         244.1299                  IN - OUT =           3.9027

     PERCENT DISCREPANCY =          10.20         PERCENT DISCREPANCY =          10.05






         TIME SUMMARY AT END OF TIME STEP   28 IN STRESS PERIOD    2
                    SECONDS     MINUTES      HOURS       DAYS        YEARS
                    -----------------------------------------------------------
   TIME STEP LENGTH  86400.      1440.0      24.000      1.0000     2.73785E-03
 STRESS PERIOD TIME 2.41920E+06  40320.      672.00      28.000     7.66598E-02
         TOTAL TIME 5.09760E+06  84960.      1416.0      59.000     0.16153    
1
1
                            STRESS PERIOD NO.    3, LENGTH =   31.00000    
                            -----------------------------------------------

                              NUMBER OF TIME STEPS =    31

                               MULTIPLIER FOR DELT =     1.000

                            INITIAL TIME STEP SIZE =   1.000000    



 CLASSIFICATION & COUNT OF STREAM SEGMENTS BASED ON SOURCE OF INFLOW:

                HEADWATER     DIVERSION     RECEIVES TRIBUTARY FLOW
                ---------     ---------     -----------------------
                     1              2               9



                    INPUT DATA FOR EACH STREAM SEGMENT
 ---------------------------------------------------------------------------------------------

 SEGMENT    SEG.     INFLOW   OVERLAND   STREAM    STREAM   ICALC  OUTFLOW  DIVERSION PRIORITY
    NO.    LENGTH     RATE     RUNOFF      ET       PPT.    METH.  TO SEG.  FROM SEG.    NO.

      1  1.000E+02 5.000E+01 0.000E+00 0.000E+00 0.000E+00    1        2        0        0
      2  1.000E+02 0.000E+00 0.000E+00 0.000E+00 0.000E+00    1        3        0        0
      3  1.000E+02 0.000E+00 0.000E+00 0.000E+00 0.000E+00    1        4        0        0
      4  1.000E+02 0.000E+00 0.000E+00 0.000E+00 0.000E+00    1        5        0        0
      5  1.000E+02 0.000E+00 0.000E+00 0.000E+00 0.000E+00    1        6        0        0
      6  1.000E+02 0.000E+00 0.000E+00 0.000E+00 0.000E+00    1        7        0        0
      7  1.000E+02 0.000E+00 0.000E+00 0.000E+00 0.000E+00    1        8        0        0
      8  1.000E+02 0.000E+00 0.000E+00 0.000E+00 0.000E+00    1        9        0        0
      9  1.000E+02 0.000E+00 0.000E+00 0.000E+00 0.000E+00    1       10        0        0
     10  1.000E+02 0.000E+00 0.000E+00 0.000E+00 0.000E+00    1        0        0        0
     11  1.000E+02 2.000E+01 0.000E+00 0.000E+00 0.000E+00    1        0        3        0
     12  1.000E+02 1.000E+01 0.000E+00 0.000E+00 0.000E+00    1        0        5        0


         STREAMBED PROPERTIES AND STREAM DIMENSIONS

 SEGMENT     BED HYD. COND.      BED THICKNESS     ELEV.-TOP OF BED     WIDTH OF STREAM     DEPTH OF STREAM    STREAM ROUGHNESS
    No.     UPPER     LOWER     UPPER     LOWER     UPPER     LOWER     UPPER     LOWER     UPPER     LOWER   CHANNEL      BANK

     1  1.500E-05 1.500E-05 5.000E-01 5.000E-01 9.900E+01 9.898E+01 5.000E+00 5.000E+00                     3.000E-02
     2  1.500E-05 1.500E-05 5.000E-01 5.000E-01 9.898E+01 9.896E+01 5.000E+00 5.000E+00                     3.000E-02
     3  1.500E-05 1.500E-05 5.000E-01 5.000E-01 9.896E+01 9.894E+01 5.000E+00 5.000E+00                     3.000E-02
     4  1.500E-05 1.500E-05 5.000E-01 5.000E-01 9.894E+01 9.892E+01 5.000E+00 5.000E+00                     3.000E-02
     5  1.500E-05 1.500E-05 5.000E-01 5.000E-01 9.892E+01 9.890E+01 5.000E+00 5.000E+00                     3.000E-02
     6  1.500E-05 1.500E-05 5.000E-01 5.000E-01 9.890E+01 9.888E+01 5.000E+00 5.000E+00                     3.000E-02
     7  1.500E-05 1.500E-05 5.000E-01 5.000E-01 9.888E+01 9.886E+01 5.000E+00 5.000E+00                     3.000E-02
     8  1.500E-05 1.500E-05 5.000E-01 5.000E-01 9.886E+01 9.884E+01 5.000E+00 5.000E+00                     3.000E-02
     9  1.500E-05 1.500E-05 5.000E-01 5.000E-01 9.884E+01 9.882E+01 5.000E+00 5.000E+00                     3.000E-02
    10  1.500E-05 1.500E-05 5.000E-01 5.000E-01 9.882E+01 9.880E+01 5.000E+00 5.000E+00                     3.000E-02
    11  1.500E-05 1.500E-05 5.000E-01 5.000E-01 9.894E+01 9.892E+01 5.000E+00 5.000E+00                     3.000E-02
    12  1.500E-05 1.500E-05 5.000E-01 5.000E-01 9.890E+01 9.888E+01 5.000E+00 5.000E+00                     3.000E-02






            AREAL INFILTRATION RATE
 READING ON UNIT   19 WITH FORMAT: (10E15.6)           



                            ET RATE
 READING ON UNIT   19 WITH FORMAT: (10E15.6)           



                ET EXTINCTION DEPTH
 READING ON UNIT   19 WITH FORMAT: (10E15.6)           



           EXTINCTION WATER CONTENT
 READING ON UNIT   19 WITH FORMAT: (10E15.6)           

 PROCESSING AG STRESS PERIOD DATA

 READING AG STRESS PERIOD DATA

 READING IRRIGATION SEGMENT

 READING IRRIGATION WELL

 READING SUPPLEMENTAL WELL

 END PROCESSING AG STRESS PERIOD DATA OPTIONS
 
 SOLVING FOR HEAD 

    ------------------------------------------------
       NWT REQUIRED            1 OUTER ITERATIONS 
       AND A TOTAL OF          2 INNER ITERATIONS.
    ------------------------------------------------

 OUTPUT CONTROL FOR STRESS PERIOD    3   TIME STEP    1
    SAVE HEAD FOR ALL LAYERS
    SAVE BUDGET
 UBDSV1 SAVING "         STORAGE" ON UNIT  52 AT TIME STEP  1, STRESS PERIOD   3
 UBDSV2 SAVING "   CONSTANT HEAD" ON UNIT  52 AT TIME STEP  1, STRESS PERIOD   3
 UBDSV1 SAVING "FLOW RIGHT FACE " ON UNIT  52 AT TIME STEP  1, STRESS PERIOD   3
 UBDSV1 SAVING "FLOW FRONT FACE " ON UNIT  52 AT TIME STEP  1, STRESS PERIOD   3
 UBDSV4 SAVING "  STREAM LEAKAGE" ON UNIT  52 AT TIME STEP  1, STRESS PERIOD   3



 UBUDSV SAVING "           GW ET" ON UNIT 52 AT TIME STEP  1, STRESS PERIOD    3
 UBUDSV SAVING "    UZF RECHARGE" ON UNIT 52 AT TIME STEP  1, STRESS PERIOD    3
 UBUDSV SAVING " SURFACE LEAKAGE" ON UNIT 52 AT TIME STEP  1, STRESS PERIOD    3
 UBUDSV SAVING "       HORT+DUNN" ON UNIT 52 AT TIME STEP  1, STRESS PERIOD    3
 UBUDSV SAVING "  STORAGE CHANGE" ON UNIT 52 AT TIME STEP  1, STRESS PERIOD    3
 UBDSV4 SAVING "           AG WE" ON UNIT  52 AT TIME STEP  1, STRESS PERIOD   3

 HEAD WILL BE SAVED ON UNIT   51 AT END OF TIME STEP    1, STRESS PERIOD    3
 
 SOLVING FOR HEAD 

    ------------------------------------------------
       NWT REQUIRED            1 OUTER ITERATIONS 
       AND A TOTAL OF          2 INNER ITERATIONS.
    ------------------------------------------------

 OUTPUT CONTROL FOR STRESS PERIOD    3   TIME STEP    2
    SAVE HEAD FOR ALL LAYERS
    SAVE BUDGET
 UBDSV1 SAVING "         STORAGE" ON UNIT  52 AT TIME STEP  2, STRESS PERIOD   3
 UBDSV2 SAVING "   CONSTANT HEAD" ON UNIT  52 AT TIME STEP  2, STRESS PERIOD   3
 UBDSV1 SAVING "FLOW RIGHT FACE " ON UNIT  52 AT TIME STEP  2, STRESS PERIOD   3
 UBDSV1 SAVING "FLOW FRONT FACE " ON UNIT  52 AT TIME STEP  2, STRESS PERIOD   3
 UBDSV4 SAVING "  STREAM LEAKAGE" ON UNIT  52 AT TIME STEP  2, STRESS PERIOD   3



 UBUDSV SAVING "           GW ET" ON UNIT 52 AT TIME STEP  2, STRESS PERIOD    3
 UBUDSV SAVING "    UZF RECHARGE" ON UNIT 52 AT TIME STEP  2, STRESS PERIOD    3
 UBUDSV SAVING " SURFACE LEAKAGE" ON UNIT 52 AT TIME STEP  2, STRESS PERIOD    3
 UBUDSV SAVING "       HORT+DUNN" ON UNIT 52 AT TIME STEP  2, STRESS PERIOD    3
 UBUDSV SAVING "  STORAGE CHANGE" ON UNIT 52 AT TIME STEP  2, STRESS PERIOD    3
 UBDSV4 SAVING "           AG WE" ON UNIT  52 AT TIME STEP  2, STRESS PERIOD   3

 HEAD WILL BE SAVED ON UNIT   51 AT END OF TIME STEP    2, STRESS PERIOD    3
 
 SOLVING FOR HEAD 

    ------------------------------------------------
       NWT REQUIRED            1 OUTER ITERATIONS 
       AND A TOTAL OF          2 INNER ITERATIONS.
    ------------------------------------------------

 OUTPUT CONTROL FOR STRESS PERIOD    3   TIME STEP    3
    SAVE HEAD FOR ALL LAYERS
    SAVE BUDGET
 UBDSV1 SAVING "         STORAGE" ON UNIT  52 AT TIME STEP  3, STRESS PERIOD   3
 UBDSV2 SAVING "   CONSTANT HEAD" ON UNIT  52 AT TIME STEP  3, STRESS PERIOD   3
 UBDSV1 SAVING "FLOW RIGHT FACE " ON UNIT  52 AT TIME STEP  3, STRESS PERIOD   3
 UBDSV1 SAVING "FLOW FRONT FACE " ON UNIT  52 AT TIME STEP  3, STRESS PERIOD   3
 UBDSV4 SAVING "  STREAM LEAKAGE" ON UNIT  52 AT TIME STEP  3, STRESS PERIOD   3



 UBUDSV SAVING "           GW ET" ON UNIT 52 AT TIME STEP  3, STRESS PERIOD    3
 UBUDSV SAVING "    UZF RECHARGE" ON UNIT 52 AT TIME STEP  3, STRESS PERIOD    3
 UBUDSV SAVING " SURFACE LEAKAGE" ON UNIT 52 AT TIME STEP  3, STRESS PERIOD    3
 UBUDSV SAVING "       HORT+DUNN" ON UNIT 52 AT TIME STEP  3, STRESS PERIOD    3
 UBUDSV SAVING "  STORAGE CHANGE" ON UNIT 52 AT TIME STEP  3, STRESS PERIOD    3
 UBDSV4 SAVING "           AG WE" ON UNIT  52 AT TIME STEP  3, STRESS PERIOD   3

 HEAD WILL BE SAVED ON UNIT   51 AT END OF TIME STEP    3, STRESS PERIOD    3
 
 SOLVING FOR HEAD 

    ------------------------------------------------
       NWT REQUIRED            1 OUTER ITERATIONS 
       AND A TOTAL OF          2 INNER ITERATIONS.
    ------------------------------------------------

 OUTPUT CONTROL FOR STRESS PERIOD    3   TIME STEP    4
    SAVE HEAD FOR ALL LAYERS
    SAVE BUDGET
 UBDSV1 SAVING "         STORAGE" ON UNIT  52 AT TIME STEP  4, STRESS PERIOD   3
 UBDSV2 SAVING "   CONSTANT HEAD" ON UNIT  52 AT TIME STEP  4, STRESS PERIOD   3
 UBDSV1 SAVING "FLOW RIGHT FACE " ON UNIT  52 AT TIME STEP  4, STRESS PERIOD   3
 UBDSV1 SAVING "FLOW FRONT FACE " ON UNIT  52 AT TIME STEP  4, STRESS PERIOD   3
 UBDSV4 SAVING "  STREAM LEAKAGE" ON UNIT  52 AT TIME STEP  4, STRESS PERIOD   3



 UBUDSV SAVING "           GW ET" ON UNIT 52 AT TIME STEP  4, STRESS PERIOD    3
 UBUDSV SAVING "    UZF RECHARGE" ON UNIT 52 AT TIME STEP  4, STRESS PERIOD    3
 UBUDSV SAVING " SURFACE LEAKAGE" ON UNIT 52 AT TIME STEP  4, STRESS PERIOD    3
 UBUDSV SAVING "       HORT+DUNN" ON UNIT 52 AT TIME STEP  4, STRESS PERIOD    3
 UBUDSV SAVING "  STORAGE CHANGE" ON UNIT 52 AT TIME STEP  4, STRESS PERIOD    3
 UBDSV4 SAVING "           AG WE" ON UNIT  52 AT TIME STEP  4, STRESS PERIOD   3

 HEAD WILL BE SAVED ON UNIT   51 AT END OF TIME STEP    4, STRESS PERIOD    3
 
 SOLVING FOR HEAD 

    ------------------------------------------------
       NWT REQUIRED            1 OUTER ITERATIONS 
       AND A TOTAL OF          2 INNER ITERATIONS.
    ------------------------------------------------

 OUTPUT CONTROL FOR STRESS PERIOD    3   TIME STEP    5
    SAVE HEAD FOR ALL LAYERS
    SAVE BUDGET
 UBDSV1 SAVING "         STORAGE" ON UNIT  52 AT TIME STEP  5, STRESS PERIOD   3
 UBDSV2 SAVING "   CONSTANT HEAD" ON UNIT  52 AT TIME STEP  5, STRESS PERIOD   3
 UBDSV1 SAVING "FLOW RIGHT FACE " ON UNIT  52 AT TIME STEP  5, STRESS PERIOD   3
 UBDSV1 SAVING "FLOW FRONT FACE " ON UNIT  52 AT TIME STEP  5, STRESS PERIOD   3
 UBDSV4 SAVING "  STREAM LEAKAGE" ON UNIT  52 AT TIME STEP  5, STRESS PERIOD   3



 UBUDSV SAVING "           GW ET" ON UNIT 52 AT TIME STEP  5, STRESS PERIOD    3
 UBUDSV SAVING "    UZF RECHARGE" ON UNIT 52 AT TIME STEP  5, STRESS PERIOD    3
 UBUDSV SAVING " SURFACE LEAKAGE" ON UNIT 52 AT TIME STEP  5, STRESS PERIOD    3
 UBUDSV SAVING "       HORT+DUNN" ON UNIT 52 AT TIME STEP  5, STRESS PERIOD    3
 UBUDSV SAVING "  STORAGE CHANGE" ON UNIT 52 AT TIME STEP  5, STRESS PERIOD    3
 UBDSV4 SAVING "           AG WE" ON UNIT  52 AT TIME STEP  5, STRESS PERIOD   3

 HEAD WILL BE SAVED ON UNIT   51 AT END OF TIME STEP    5, STRESS PERIOD    3
 
 SOLVING FOR HEAD 

    ------------------------------------------------
       NWT REQUIRED            1 OUTER ITERATIONS 
       AND A TOTAL OF          2 INNER ITERATIONS.
    ------------------------------------------------

 OUTPUT CONTROL FOR STRESS PERIOD    3   TIME STEP    6
    SAVE HEAD FOR ALL LAYERS
    SAVE BUDGET
 UBDSV1 SAVING "         STORAGE" ON UNIT  52 AT TIME STEP  6, STRESS PERIOD   3
 UBDSV2 SAVING "   CONSTANT HEAD" ON UNIT  52 AT TIME STEP  6, STRESS PERIOD   3
 UBDSV1 SAVING "FLOW RIGHT FACE " ON UNIT  52 AT TIME STEP  6, STRESS PERIOD   3
 UBDSV1 SAVING "FLOW FRONT FACE " ON UNIT  52 AT TIME STEP  6, STRESS PERIOD   3
 UBDSV4 SAVING "  STREAM LEAKAGE" ON UNIT  52 AT TIME STEP  6, STRESS PERIOD   3



 UBUDSV SAVING "           GW ET" ON UNIT 52 AT TIME STEP  6, STRESS PERIOD    3
 UBUDSV SAVING "    UZF RECHARGE" ON UNIT 52 AT TIME STEP  6, STRESS PERIOD    3
 UBUDSV SAVING " SURFACE LEAKAGE" ON UNIT 52 AT TIME STEP  6, STRESS PERIOD    3
 UBUDSV SAVING "       HORT+DUNN" ON UNIT 52 AT TIME STEP  6, STRESS PERIOD    3
 UBUDSV SAVING "  STORAGE CHANGE" ON UNIT 52 AT TIME STEP  6, STRESS PERIOD    3
 UBDSV4 SAVING "           AG WE" ON UNIT  52 AT TIME STEP  6, STRESS PERIOD   3

 HEAD WILL BE SAVED ON UNIT   51 AT END OF TIME STEP    6, STRESS PERIOD    3
 
 SOLVING FOR HEAD 

    ------------------------------------------------
       NWT REQUIRED            1 OUTER ITERATIONS 
       AND A TOTAL OF          2 INNER ITERATIONS.
    ------------------------------------------------

 OUTPUT CONTROL FOR STRESS PERIOD    3   TIME STEP    7
    SAVE HEAD FOR ALL LAYERS
    SAVE BUDGET
 UBDSV1 SAVING "         STORAGE" ON UNIT  52 AT TIME STEP  7, STRESS PERIOD   3
 UBDSV2 SAVING "   CONSTANT HEAD" ON UNIT  52 AT TIME STEP  7, STRESS PERIOD   3
 UBDSV1 SAVING "FLOW RIGHT FACE " ON UNIT  52 AT TIME STEP  7, STRESS PERIOD   3
 UBDSV1 SAVING "FLOW FRONT FACE " ON UNIT  52 AT TIME STEP  7, STRESS PERIOD   3
 UBDSV4 SAVING "  STREAM LEAKAGE" ON UNIT  52 AT TIME STEP  7, STRESS PERIOD   3



 UBUDSV SAVING "           GW ET" ON UNIT 52 AT TIME STEP  7, STRESS PERIOD    3
 UBUDSV SAVING "    UZF RECHARGE" ON UNIT 52 AT TIME STEP  7, STRESS PERIOD    3
 UBUDSV SAVING " SURFACE LEAKAGE" ON UNIT 52 AT TIME STEP  7, STRESS PERIOD    3
 UBUDSV SAVING "       HORT+DUNN" ON UNIT 52 AT TIME STEP  7, STRESS PERIOD    3
 UBUDSV SAVING "  STORAGE CHANGE" ON UNIT 52 AT TIME STEP  7, STRESS PERIOD    3
 UBDSV4 SAVING "           AG WE" ON UNIT  52 AT TIME STEP  7, STRESS PERIOD   3

 HEAD WILL BE SAVED ON UNIT   51 AT END OF TIME STEP    7, STRESS PERIOD    3
 
 SOLVING FOR HEAD 

    ------------------------------------------------
       NWT REQUIRED            1 OUTER ITERATIONS 
       AND A TOTAL OF          2 INNER ITERATIONS.
    ------------------------------------------------

 OUTPUT CONTROL FOR STRESS PERIOD    3   TIME STEP    8
    SAVE HEAD FOR ALL LAYERS
    SAVE BUDGET
 UBDSV1 SAVING "         STORAGE" ON UNIT  52 AT TIME STEP  8, STRESS PERIOD   3
 UBDSV2 SAVING "   CONSTANT HEAD" ON UNIT  52 AT TIME STEP  8, STRESS PERIOD   3
 UBDSV1 SAVING "FLOW RIGHT FACE " ON UNIT  52 AT TIME STEP  8, STRESS PERIOD   3
 UBDSV1 SAVING "FLOW FRONT FACE " ON UNIT  52 AT TIME STEP  8, STRESS PERIOD   3
 UBDSV4 SAVING "  STREAM LEAKAGE" ON UNIT  52 AT TIME STEP  8, STRESS PERIOD   3



 UBUDSV SAVING "           GW ET" ON UNIT 52 AT TIME STEP  8, STRESS PERIOD    3
 UBUDSV SAVING "    UZF RECHARGE" ON UNIT 52 AT TIME STEP  8, STRESS PERIOD    3
 UBUDSV SAVING " SURFACE LEAKAGE" ON UNIT 52 AT TIME STEP  8, STRESS PERIOD    3
 UBUDSV SAVING "       HORT+DUNN" ON UNIT 52 AT TIME STEP  8, STRESS PERIOD    3
 UBUDSV SAVING "  STORAGE CHANGE" ON UNIT 52 AT TIME STEP  8, STRESS PERIOD    3
 UBDSV4 SAVING "           AG WE" ON UNIT  52 AT TIME STEP  8, STRESS PERIOD   3

 HEAD WILL BE SAVED ON UNIT   51 AT END OF TIME STEP    8, STRESS PERIOD    3
 
 SOLVING FOR HEAD 

    ------------------------------------------------
       NWT REQUIRED            1 OUTER ITERATIONS 
       AND A TOTAL OF          2 INNER ITERATIONS.
    ------------------------------------------------

 OUTPUT CONTROL FOR STRESS PERIOD    3   TIME STEP    9
    SAVE HEAD FOR ALL LAYERS
    SAVE BUDGET
 UBDSV1 SAVING "         STORAGE" ON UNIT  52 AT TIME STEP  9, STRESS PERIOD   3
 UBDSV2 SAVING "   CONSTANT HEAD" ON UNIT  52 AT TIME STEP  9, STRESS PERIOD   3
 UBDSV1 SAVING "FLOW RIGHT FACE " ON UNIT  52 AT TIME STEP  9, STRESS PERIOD   3
 UBDSV1 SAVING "FLOW FRONT FACE " ON UNIT  52 AT TIME STEP  9, STRESS PERIOD   3
 UBDSV4 SAVING "  STREAM LEAKAGE" ON UNIT  52 AT TIME STEP  9, STRESS PERIOD   3



 UBUDSV SAVING "           GW ET" ON UNIT 52 AT TIME STEP  9, STRESS PERIOD    3
 UBUDSV SAVING "    UZF RECHARGE" ON UNIT 52 AT TIME STEP  9, STRESS PERIOD    3
 UBUDSV SAVING " SURFACE LEAKAGE" ON UNIT 52 AT TIME STEP  9, STRESS PERIOD    3
 UBUDSV SAVING "       HORT+DUNN" ON UNIT 52 AT TIME STEP  9, STRESS PERIOD    3
 UBUDSV SAVING "  STORAGE CHANGE" ON UNIT 52 AT TIME STEP  9, STRESS PERIOD    3
 UBDSV4 SAVING "           AG WE" ON UNIT  52 AT TIME STEP  9, STRESS PERIOD   3

 HEAD WILL BE SAVED ON UNIT   51 AT END OF TIME STEP    9, STRESS PERIOD    3
 
 SOLVING FOR HEAD 

    ------------------------------------------------
       NWT REQUIRED            1 OUTER ITERATIONS 
       AND A TOTAL OF          2 INNER ITERATIONS.
    ------------------------------------------------

 OUTPUT CONTROL FOR STRESS PERIOD    3   TIME STEP   10
    SAVE HEAD FOR ALL LAYERS
    SAVE BUDGET
 UBDSV1 SAVING "         STORAGE" ON UNIT  52 AT TIME STEP 10, STRESS PERIOD   3
 UBDSV2 SAVING "   CONSTANT HEAD" ON UNIT  52 AT TIME STEP 10, STRESS PERIOD   3
 UBDSV1 SAVING "FLOW RIGHT FACE " ON UNIT  52 AT TIME STEP 10, STRESS PERIOD   3
 UBDSV1 SAVING "FLOW FRONT FACE " ON UNIT  52 AT TIME STEP 10, STRESS PERIOD   3
 UBDSV4 SAVING "  STREAM LEAKAGE" ON UNIT  52 AT TIME STEP 10, STRESS PERIOD   3



 UBUDSV SAVING "           GW ET" ON UNIT 52 AT TIME STEP 10, STRESS PERIOD    3
 UBUDSV SAVING "    UZF RECHARGE" ON UNIT 52 AT TIME STEP 10, STRESS PERIOD    3
 UBUDSV SAVING " SURFACE LEAKAGE" ON UNIT 52 AT TIME STEP 10, STRESS PERIOD    3
 UBUDSV SAVING "       HORT+DUNN" ON UNIT 52 AT TIME STEP 10, STRESS PERIOD    3
 UBUDSV SAVING "  STORAGE CHANGE" ON UNIT 52 AT TIME STEP 10, STRESS PERIOD    3
 UBDSV4 SAVING "           AG WE" ON UNIT  52 AT TIME STEP 10, STRESS PERIOD   3

 HEAD WILL BE SAVED ON UNIT   51 AT END OF TIME STEP   10, STRESS PERIOD    3
 
 SOLVING FOR HEAD 

    ------------------------------------------------
       NWT REQUIRED            1 OUTER ITERATIONS 
       AND A TOTAL OF          2 INNER ITERATIONS.
    ------------------------------------------------

 OUTPUT CONTROL FOR STRESS PERIOD    3   TIME STEP   11
    SAVE HEAD FOR ALL LAYERS
    SAVE BUDGET
 UBDSV1 SAVING "         STORAGE" ON UNIT  52 AT TIME STEP 11, STRESS PERIOD   3
 UBDSV2 SAVING "   CONSTANT HEAD" ON UNIT  52 AT TIME STEP 11, STRESS PERIOD   3
 UBDSV1 SAVING "FLOW RIGHT FACE " ON UNIT  52 AT TIME STEP 11, STRESS PERIOD   3
 UBDSV1 SAVING "FLOW FRONT FACE " ON UNIT  52 AT TIME STEP 11, STRESS PERIOD   3
 UBDSV4 SAVING "  STREAM LEAKAGE" ON UNIT  52 AT TIME STEP 11, STRESS PERIOD   3



 UBUDSV SAVING "           GW ET" ON UNIT 52 AT TIME STEP 11, STRESS PERIOD    3
 UBUDSV SAVING "    UZF RECHARGE" ON UNIT 52 AT TIME STEP 11, STRESS PERIOD    3
 UBUDSV SAVING " SURFACE LEAKAGE" ON UNIT 52 AT TIME STEP 11, STRESS PERIOD    3
 UBUDSV SAVING "       HORT+DUNN" ON UNIT 52 AT TIME STEP 11, STRESS PERIOD    3
 UBUDSV SAVING "  STORAGE CHANGE" ON UNIT 52 AT TIME STEP 11, STRESS PERIOD    3
 UBDSV4 SAVING "           AG WE" ON UNIT  52 AT TIME STEP 11, STRESS PERIOD   3

 HEAD WILL BE SAVED ON UNIT   51 AT END OF TIME STEP   11, STRESS PERIOD    3
 
 SOLVING FOR HEAD 

    ------------------------------------------------
       NWT REQUIRED            1 OUTER ITERATIONS 
       AND A TOTAL OF          2 INNER ITERATIONS.
    ------------------------------------------------

 OUTPUT CONTROL FOR STRESS PERIOD    3   TIME STEP   12
    SAVE HEAD FOR ALL LAYERS
    SAVE BUDGET
 UBDSV1 SAVING "         STORAGE" ON UNIT  52 AT TIME STEP 12, STRESS PERIOD   3
 UBDSV2 SAVING "   CONSTANT HEAD" ON UNIT  52 AT TIME STEP 12, STRESS PERIOD   3
 UBDSV1 SAVING "FLOW RIGHT FACE " ON UNIT  52 AT TIME STEP 12, STRESS PERIOD   3
 UBDSV1 SAVING "FLOW FRONT FACE " ON UNIT  52 AT TIME STEP 12, STRESS PERIOD   3
 UBDSV4 SAVING "  STREAM LEAKAGE" ON UNIT  52 AT TIME STEP 12, STRESS PERIOD   3



 UBUDSV SAVING "           GW ET" ON UNIT 52 AT TIME STEP 12, STRESS PERIOD    3
 UBUDSV SAVING "    UZF RECHARGE" ON UNIT 52 AT TIME STEP 12, STRESS PERIOD    3
 UBUDSV SAVING " SURFACE LEAKAGE" ON UNIT 52 AT TIME STEP 12, STRESS PERIOD    3
 UBUDSV SAVING "       HORT+DUNN" ON UNIT 52 AT TIME STEP 12, STRESS PERIOD    3
 UBUDSV SAVING "  STORAGE CHANGE" ON UNIT 52 AT TIME STEP 12, STRESS PERIOD    3
 UBDSV4 SAVING "           AG WE" ON UNIT  52 AT TIME STEP 12, STRESS PERIOD   3

 HEAD WILL BE SAVED ON UNIT   51 AT END OF TIME STEP   12, STRESS PERIOD    3
 
 SOLVING FOR HEAD 

    ------------------------------------------------
       NWT REQUIRED            1 OUTER ITERATIONS 
       AND A TOTAL OF          2 INNER ITERATIONS.
    ------------------------------------------------

 OUTPUT CONTROL FOR STRESS PERIOD    3   TIME STEP   13
    SAVE HEAD FOR ALL LAYERS
    SAVE BUDGET
 UBDSV1 SAVING "         STORAGE" ON UNIT  52 AT TIME STEP 13, STRESS PERIOD   3
 UBDSV2 SAVING "   CONSTANT HEAD" ON UNIT  52 AT TIME STEP 13, STRESS PERIOD   3
 UBDSV1 SAVING "FLOW RIGHT FACE " ON UNIT  52 AT TIME STEP 13, STRESS PERIOD   3
 UBDSV1 SAVING "FLOW FRONT FACE " ON UNIT  52 AT TIME STEP 13, STRESS PERIOD   3
 UBDSV4 SAVING "  STREAM LEAKAGE" ON UNIT  52 AT TIME STEP 13, STRESS PERIOD   3



 UBUDSV SAVING "           GW ET" ON UNIT 52 AT TIME STEP 13, STRESS PERIOD    3
 UBUDSV SAVING "    UZF RECHARGE" ON UNIT 52 AT TIME STEP 13, STRESS PERIOD    3
 UBUDSV SAVING " SURFACE LEAKAGE" ON UNIT 52 AT TIME STEP 13, STRESS PERIOD    3
 UBUDSV SAVING "       HORT+DUNN" ON UNIT 52 AT TIME STEP 13, STRESS PERIOD    3
 UBUDSV SAVING "  STORAGE CHANGE" ON UNIT 52 AT TIME STEP 13, STRESS PERIOD    3
 UBDSV4 SAVING "           AG WE" ON UNIT  52 AT TIME STEP 13, STRESS PERIOD   3

 HEAD WILL BE SAVED ON UNIT   51 AT END OF TIME STEP   13, STRESS PERIOD    3
 
 SOLVING FOR HEAD 

    ------------------------------------------------
       NWT REQUIRED            1 OUTER ITERATIONS 
       AND A TOTAL OF          2 INNER ITERATIONS.
    ------------------------------------------------

 OUTPUT CONTROL FOR STRESS PERIOD    3   TIME STEP   14
    SAVE HEAD FOR ALL LAYERS
    SAVE BUDGET
 UBDSV1 SAVING "         STORAGE" ON UNIT  52 AT TIME STEP 14, STRESS PERIOD   3
 UBDSV2 SAVING "   CONSTANT HEAD" ON UNIT  52 AT TIME STEP 14, STRESS PERIOD   3
 UBDSV1 SAVING "FLOW RIGHT FACE " ON UNIT  52 AT TIME STEP 14, STRESS PERIOD   3
 UBDSV1 SAVING "FLOW FRONT FACE " ON UNIT  52 AT TIME STEP 14, STRESS PERIOD   3
 UBDSV4 SAVING "  STREAM LEAKAGE" ON UNIT  52 AT TIME STEP 14, STRESS PERIOD   3



 UBUDSV SAVING "           GW ET" ON UNIT 52 AT TIME STEP 14, STRESS PERIOD    3
 UBUDSV SAVING "    UZF RECHARGE" ON UNIT 52 AT TIME STEP 14, STRESS PERIOD    3
 UBUDSV SAVING " SURFACE LEAKAGE" ON UNIT 52 AT TIME STEP 14, STRESS PERIOD    3
 UBUDSV SAVING "       HORT+DUNN" ON UNIT 52 AT TIME STEP 14, STRESS PERIOD    3
 UBUDSV SAVING "  STORAGE CHANGE" ON UNIT 52 AT TIME STEP 14, STRESS PERIOD    3
 UBDSV4 SAVING "           AG WE" ON UNIT  52 AT TIME STEP 14, STRESS PERIOD   3

 HEAD WILL BE SAVED ON UNIT   51 AT END OF TIME STEP   14, STRESS PERIOD    3
 
 SOLVING FOR HEAD 

    ------------------------------------------------
       NWT REQUIRED            1 OUTER ITERATIONS 
       AND A TOTAL OF          2 INNER ITERATIONS.
    ------------------------------------------------

 OUTPUT CONTROL FOR STRESS PERIOD    3   TIME STEP   15
    SAVE HEAD FOR ALL LAYERS
    SAVE BUDGET
 UBDSV1 SAVING "         STORAGE" ON UNIT  52 AT TIME STEP 15, STRESS PERIOD   3
 UBDSV2 SAVING "   CONSTANT HEAD" ON UNIT  52 AT TIME STEP 15, STRESS PERIOD   3
 UBDSV1 SAVING "FLOW RIGHT FACE " ON UNIT  52 AT TIME STEP 15, STRESS PERIOD   3
 UBDSV1 SAVING "FLOW FRONT FACE " ON UNIT  52 AT TIME STEP 15, STRESS PERIOD   3
 UBDSV4 SAVING "  STREAM LEAKAGE" ON UNIT  52 AT TIME STEP 15, STRESS PERIOD   3



 UBUDSV SAVING "           GW ET" ON UNIT 52 AT TIME STEP 15, STRESS PERIOD    3
 UBUDSV SAVING "    UZF RECHARGE" ON UNIT 52 AT TIME STEP 15, STRESS PERIOD    3
 UBUDSV SAVING " SURFACE LEAKAGE" ON UNIT 52 AT TIME STEP 15, STRESS PERIOD    3
 UBUDSV SAVING "       HORT+DUNN" ON UNIT 52 AT TIME STEP 15, STRESS PERIOD    3
 UBUDSV SAVING "  STORAGE CHANGE" ON UNIT 52 AT TIME STEP 15, STRESS PERIOD    3
 UBDSV4 SAVING "           AG WE" ON UNIT  52 AT TIME STEP 15, STRESS PERIOD   3

 HEAD WILL BE SAVED ON UNIT   51 AT END OF TIME STEP   15, STRESS PERIOD    3
 
 SOLVING FOR HEAD 

    ------------------------------------------------
       NWT REQUIRED            1 OUTER ITERATIONS 
       AND A TOTAL OF          2 INNER ITERATIONS.
    ------------------------------------------------

 OUTPUT CONTROL FOR STRESS PERIOD    3   TIME STEP   16
    SAVE HEAD FOR ALL LAYERS
    SAVE BUDGET
 UBDSV1 SAVING "         STORAGE" ON UNIT  52 AT TIME STEP 16, STRESS PERIOD   3
 UBDSV2 SAVING "   CONSTANT HEAD" ON UNIT  52 AT TIME STEP 16, STRESS PERIOD   3
 UBDSV1 SAVING "FLOW RIGHT FACE " ON UNIT  52 AT TIME STEP 16, STRESS PERIOD   3
 UBDSV1 SAVING "FLOW FRONT FACE " ON UNIT  52 AT TIME STEP 16, STRESS PERIOD   3
 UBDSV4 SAVING "  STREAM LEAKAGE" ON UNIT  52 AT TIME STEP 16, STRESS PERIOD   3



 UBUDSV SAVING "           GW ET" ON UNIT 52 AT TIME STEP 16, STRESS PERIOD    3
 UBUDSV SAVING "    UZF RECHARGE" ON UNIT 52 AT TIME STEP 16, STRESS PERIOD    3
 UBUDSV SAVING " SURFACE LEAKAGE" ON UNIT 52 AT TIME STEP 16, STRESS PERIOD    3
 UBUDSV SAVING "       HORT+DUNN" ON UNIT 52 AT TIME STEP 16, STRESS PERIOD    3
 UBUDSV SAVING "  STORAGE CHANGE" ON UNIT 52 AT TIME STEP 16, STRESS PERIOD    3
 UBDSV4 SAVING "           AG WE" ON UNIT  52 AT TIME STEP 16, STRESS PERIOD   3

 HEAD WILL BE SAVED ON UNIT   51 AT END OF TIME STEP   16, STRESS PERIOD    3
 
 SOLVING FOR HEAD 

    ------------------------------------------------
       NWT REQUIRED            1 OUTER ITERATIONS 
       AND A TOTAL OF          2 INNER ITERATIONS.
    ------------------------------------------------

 OUTPUT CONTROL FOR STRESS PERIOD    3   TIME STEP   17
    SAVE HEAD FOR ALL LAYERS
    SAVE BUDGET
 UBDSV1 SAVING "         STORAGE" ON UNIT  52 AT TIME STEP 17, STRESS PERIOD   3
 UBDSV2 SAVING "   CONSTANT HEAD" ON UNIT  52 AT TIME STEP 17, STRESS PERIOD   3
 UBDSV1 SAVING "FLOW RIGHT FACE " ON UNIT  52 AT TIME STEP 17, STRESS PERIOD   3
 UBDSV1 SAVING "FLOW FRONT FACE " ON UNIT  52 AT TIME STEP 17, STRESS PERIOD   3
 UBDSV4 SAVING "  STREAM LEAKAGE" ON UNIT  52 AT TIME STEP 17, STRESS PERIOD   3



 UBUDSV SAVING "           GW ET" ON UNIT 52 AT TIME STEP 17, STRESS PERIOD    3
 UBUDSV SAVING "    UZF RECHARGE" ON UNIT 52 AT TIME STEP 17, STRESS PERIOD    3
 UBUDSV SAVING " SURFACE LEAKAGE" ON UNIT 52 AT TIME STEP 17, STRESS PERIOD    3
 UBUDSV SAVING "       HORT+DUNN" ON UNIT 52 AT TIME STEP 17, STRESS PERIOD    3
 UBUDSV SAVING "  STORAGE CHANGE" ON UNIT 52 AT TIME STEP 17, STRESS PERIOD    3
 UBDSV4 SAVING "           AG WE" ON UNIT  52 AT TIME STEP 17, STRESS PERIOD   3

 HEAD WILL BE SAVED ON UNIT   51 AT END OF TIME STEP   17, STRESS PERIOD    3
 
 SOLVING FOR HEAD 

    ------------------------------------------------
       NWT REQUIRED            1 OUTER ITERATIONS 
       AND A TOTAL OF          2 INNER ITERATIONS.
    ------------------------------------------------

 OUTPUT CONTROL FOR STRESS PERIOD    3   TIME STEP   18
    SAVE HEAD FOR ALL LAYERS
    SAVE BUDGET
 UBDSV1 SAVING "         STORAGE" ON UNIT  52 AT TIME STEP 18, STRESS PERIOD   3
 UBDSV2 SAVING "   CONSTANT HEAD" ON UNIT  52 AT TIME STEP 18, STRESS PERIOD   3
 UBDSV1 SAVING "FLOW RIGHT FACE " ON UNIT  52 AT TIME STEP 18, STRESS PERIOD   3
 UBDSV1 SAVING "FLOW FRONT FACE " ON UNIT  52 AT TIME STEP 18, STRESS PERIOD   3
 UBDSV4 SAVING "  STREAM LEAKAGE" ON UNIT  52 AT TIME STEP 18, STRESS PERIOD   3



 UBUDSV SAVING "           GW ET" ON UNIT 52 AT TIME STEP 18, STRESS PERIOD    3
 UBUDSV SAVING "    UZF RECHARGE" ON UNIT 52 AT TIME STEP 18, STRESS PERIOD    3
 UBUDSV SAVING " SURFACE LEAKAGE" ON UNIT 52 AT TIME STEP 18, STRESS PERIOD    3
 UBUDSV SAVING "       HORT+DUNN" ON UNIT 52 AT TIME STEP 18, STRESS PERIOD    3
 UBUDSV SAVING "  STORAGE CHANGE" ON UNIT 52 AT TIME STEP 18, STRESS PERIOD    3
 UBDSV4 SAVING "           AG WE" ON UNIT  52 AT TIME STEP 18, STRESS PERIOD   3

 HEAD WILL BE SAVED ON UNIT   51 AT END OF TIME STEP   18, STRESS PERIOD    3
 
 SOLVING FOR HEAD 

    ------------------------------------------------
       NWT REQUIRED            1 OUTER ITERATIONS 
       AND A TOTAL OF          2 INNER ITERATIONS.
    ------------------------------------------------

 OUTPUT CONTROL FOR STRESS PERIOD    3   TIME STEP   19
    SAVE HEAD FOR ALL LAYERS
    SAVE BUDGET
 UBDSV1 SAVING "         STORAGE" ON UNIT  52 AT TIME STEP 19, STRESS PERIOD   3
 UBDSV2 SAVING "   CONSTANT HEAD" ON UNIT  52 AT TIME STEP 19, STRESS PERIOD   3
 UBDSV1 SAVING "FLOW RIGHT FACE " ON UNIT  52 AT TIME STEP 19, STRESS PERIOD   3
 UBDSV1 SAVING "FLOW FRONT FACE " ON UNIT  52 AT TIME STEP 19, STRESS PERIOD   3
 UBDSV4 SAVING "  STREAM LEAKAGE" ON UNIT  52 AT TIME STEP 19, STRESS PERIOD   3



 UBUDSV SAVING "           GW ET" ON UNIT 52 AT TIME STEP 19, STRESS PERIOD    3
 UBUDSV SAVING "    UZF RECHARGE" ON UNIT 52 AT TIME STEP 19, STRESS PERIOD    3
 UBUDSV SAVING " SURFACE LEAKAGE" ON UNIT 52 AT TIME STEP 19, STRESS PERIOD    3
 UBUDSV SAVING "       HORT+DUNN" ON UNIT 52 AT TIME STEP 19, STRESS PERIOD    3
 UBUDSV SAVING "  STORAGE CHANGE" ON UNIT 52 AT TIME STEP 19, STRESS PERIOD    3
 UBDSV4 SAVING "           AG WE" ON UNIT  52 AT TIME STEP 19, STRESS PERIOD   3

 HEAD WILL BE SAVED ON UNIT   51 AT END OF TIME STEP   19, STRESS PERIOD    3
 
 SOLVING FOR HEAD 

    ------------------------------------------------
       NWT REQUIRED            1 OUTER ITERATIONS 
       AND A TOTAL OF          2 INNER ITERATIONS.
    ------------------------------------------------

 OUTPUT CONTROL FOR STRESS PERIOD    3   TIME STEP   20
    SAVE HEAD FOR ALL LAYERS
    SAVE BUDGET
 UBDSV1 SAVING "         STORAGE" ON UNIT  52 AT TIME STEP 20, STRESS PERIOD   3
 UBDSV2 SAVING "   CONSTANT HEAD" ON UNIT  52 AT TIME STEP 20, STRESS PERIOD   3
 UBDSV1 SAVING "FLOW RIGHT FACE " ON UNIT  52 AT TIME STEP 20, STRESS PERIOD   3
 UBDSV1 SAVING "FLOW FRONT FACE " ON UNIT  52 AT TIME STEP 20, STRESS PERIOD   3
 UBDSV4 SAVING "  STREAM LEAKAGE" ON UNIT  52 AT TIME STEP 20, STRESS PERIOD   3



 UBUDSV SAVING "           GW ET" ON UNIT 52 AT TIME STEP 20, STRESS PERIOD    3
 UBUDSV SAVING "    UZF RECHARGE" ON UNIT 52 AT TIME STEP 20, STRESS PERIOD    3
 UBUDSV SAVING " SURFACE LEAKAGE" ON UNIT 52 AT TIME STEP 20, STRESS PERIOD    3
 UBUDSV SAVING "       HORT+DUNN" ON UNIT 52 AT TIME STEP 20, STRESS PERIOD    3
 UBUDSV SAVING "  STORAGE CHANGE" ON UNIT 52 AT TIME STEP 20, STRESS PERIOD    3
 UBDSV4 SAVING "           AG WE" ON UNIT  52 AT TIME STEP 20, STRESS PERIOD   3

 HEAD WILL BE SAVED ON UNIT   51 AT END OF TIME STEP   20, STRESS PERIOD    3
 
 SOLVING FOR HEAD 

    ------------------------------------------------
       NWT REQUIRED            1 OUTER ITERATIONS 
       AND A TOTAL OF          2 INNER ITERATIONS.
    ------------------------------------------------

 OUTPUT CONTROL FOR STRESS PERIOD    3   TIME STEP   21
    SAVE HEAD FOR ALL LAYERS
    SAVE BUDGET
 UBDSV1 SAVING "         STORAGE" ON UNIT  52 AT TIME STEP 21, STRESS PERIOD   3
 UBDSV2 SAVING "   CONSTANT HEAD" ON UNIT  52 AT TIME STEP 21, STRESS PERIOD   3
 UBDSV1 SAVING "FLOW RIGHT FACE " ON UNIT  52 AT TIME STEP 21, STRESS PERIOD   3
 UBDSV1 SAVING "FLOW FRONT FACE " ON UNIT  52 AT TIME STEP 21, STRESS PERIOD   3
 UBDSV4 SAVING "  STREAM LEAKAGE" ON UNIT  52 AT TIME STEP 21, STRESS PERIOD   3



 UBUDSV SAVING "           GW ET" ON UNIT 52 AT TIME STEP 21, STRESS PERIOD    3
 UBUDSV SAVING "    UZF RECHARGE" ON UNIT 52 AT TIME STEP 21, STRESS PERIOD    3
 UBUDSV SAVING " SURFACE LEAKAGE" ON UNIT 52 AT TIME STEP 21, STRESS PERIOD    3
 UBUDSV SAVING "       HORT+DUNN" ON UNIT 52 AT TIME STEP 21, STRESS PERIOD    3
 UBUDSV SAVING "  STORAGE CHANGE" ON UNIT 52 AT TIME STEP 21, STRESS PERIOD    3
 UBDSV4 SAVING "           AG WE" ON UNIT  52 AT TIME STEP 21, STRESS PERIOD   3

 HEAD WILL BE SAVED ON UNIT   51 AT END OF TIME STEP   21, STRESS PERIOD    3
 
 SOLVING FOR HEAD 

    ------------------------------------------------
       NWT REQUIRED            1 OUTER ITERATIONS 
       AND A TOTAL OF          2 INNER ITERATIONS.
    ------------------------------------------------

 OUTPUT CONTROL FOR STRESS PERIOD    3   TIME STEP   22
    SAVE HEAD FOR ALL LAYERS
    SAVE BUDGET
 UBDSV1 SAVING "         STORAGE" ON UNIT  52 AT TIME STEP 22, STRESS PERIOD   3
 UBDSV2 SAVING "   CONSTANT HEAD" ON UNIT  52 AT TIME STEP 22, STRESS PERIOD   3
 UBDSV1 SAVING "FLOW RIGHT FACE " ON UNIT  52 AT TIME STEP 22, STRESS PERIOD   3
 UBDSV1 SAVING "FLOW FRONT FACE " ON UNIT  52 AT TIME STEP 22, STRESS PERIOD   3
 UBDSV4 SAVING "  STREAM LEAKAGE" ON UNIT  52 AT TIME STEP 22, STRESS PERIOD   3



 UBUDSV SAVING "           GW ET" ON UNIT 52 AT TIME STEP 22, STRESS PERIOD    3
 UBUDSV SAVING "    UZF RECHARGE" ON UNIT 52 AT TIME STEP 22, STRESS PERIOD    3
 UBUDSV SAVING " SURFACE LEAKAGE" ON UNIT 52 AT TIME STEP 22, STRESS PERIOD    3
 UBUDSV SAVING "       HORT+DUNN" ON UNIT 52 AT TIME STEP 22, STRESS PERIOD    3
 UBUDSV SAVING "  STORAGE CHANGE" ON UNIT 52 AT TIME STEP 22, STRESS PERIOD    3
 UBDSV4 SAVING "           AG WE" ON UNIT  52 AT TIME STEP 22, STRESS PERIOD   3

 HEAD WILL BE SAVED ON UNIT   51 AT END OF TIME STEP   22, STRESS PERIOD    3
 
 SOLVING FOR HEAD 

    ------------------------------------------------
       NWT REQUIRED            1 OUTER ITERATIONS 
       AND A TOTAL OF          2 INNER ITERATIONS.
    ------------------------------------------------

 OUTPUT CONTROL FOR STRESS PERIOD    3   TIME STEP   23
    SAVE HEAD FOR ALL LAYERS
    SAVE BUDGET
 UBDSV1 SAVING "         STORAGE" ON UNIT  52 AT TIME STEP 23, STRESS PERIOD   3
 UBDSV2 SAVING "   CONSTANT HEAD" ON UNIT  52 AT TIME STEP 23, STRESS PERIOD   3
 UBDSV1 SAVING "FLOW RIGHT FACE " ON UNIT  52 AT TIME STEP 23, STRESS PERIOD   3
 UBDSV1 SAVING "FLOW FRONT FACE " ON UNIT  52 AT TIME STEP 23, STRESS PERIOD   3
 UBDSV4 SAVING "  STREAM LEAKAGE" ON UNIT  52 AT TIME STEP 23, STRESS PERIOD   3



 UBUDSV SAVING "           GW ET" ON UNIT 52 AT TIME STEP 23, STRESS PERIOD    3
 UBUDSV SAVING "    UZF RECHARGE" ON UNIT 52 AT TIME STEP 23, STRESS PERIOD    3
 UBUDSV SAVING " SURFACE LEAKAGE" ON UNIT 52 AT TIME STEP 23, STRESS PERIOD    3
 UBUDSV SAVING "       HORT+DUNN" ON UNIT 52 AT TIME STEP 23, STRESS PERIOD    3
 UBUDSV SAVING "  STORAGE CHANGE" ON UNIT 52 AT TIME STEP 23, STRESS PERIOD    3
 UBDSV4 SAVING "           AG WE" ON UNIT  52 AT TIME STEP 23, STRESS PERIOD   3

 HEAD WILL BE SAVED ON UNIT   51 AT END OF TIME STEP   23, STRESS PERIOD    3
 
 SOLVING FOR HEAD 

    ------------------------------------------------
       NWT REQUIRED            1 OUTER ITERATIONS 
       AND A TOTAL OF          2 INNER ITERATIONS.
    ------------------------------------------------

 OUTPUT CONTROL FOR STRESS PERIOD    3   TIME STEP   24
    SAVE HEAD FOR ALL LAYERS
    SAVE BUDGET
 UBDSV1 SAVING "         STORAGE" ON UNIT  52 AT TIME STEP 24, STRESS PERIOD   3
 UBDSV2 SAVING "   CONSTANT HEAD" ON UNIT  52 AT TIME STEP 24, STRESS PERIOD   3
 UBDSV1 SAVING "FLOW RIGHT FACE " ON UNIT  52 AT TIME STEP 24, STRESS PERIOD   3
 UBDSV1 SAVING "FLOW FRONT FACE " ON UNIT  52 AT TIME STEP 24, STRESS PERIOD   3
 UBDSV4 SAVING "  STREAM LEAKAGE" ON UNIT  52 AT TIME STEP 24, STRESS PERIOD   3



 UBUDSV SAVING "           GW ET" ON UNIT 52 AT TIME STEP 24, STRESS PERIOD    3
 UBUDSV SAVING "    UZF RECHARGE" ON UNIT 52 AT TIME STEP 24, STRESS PERIOD    3
 UBUDSV SAVING " SURFACE LEAKAGE" ON UNIT 52 AT TIME STEP 24, STRESS PERIOD    3
 UBUDSV SAVING "       HORT+DUNN" ON UNIT 52 AT TIME STEP 24, STRESS PERIOD    3
 UBUDSV SAVING "  STORAGE CHANGE" ON UNIT 52 AT TIME STEP 24, STRESS PERIOD    3
 UBDSV4 SAVING "           AG WE" ON UNIT  52 AT TIME STEP 24, STRESS PERIOD   3

 HEAD WILL BE SAVED ON UNIT   51 AT END OF TIME STEP   24, STRESS PERIOD    3
 
 SOLVING FOR HEAD 

    ------------------------------------------------
       NWT REQUIRED            1 OUTER ITERATIONS 
       AND A TOTAL OF          2 INNER ITERATIONS.
    ------------------------------------------------

 OUTPUT CONTROL FOR STRESS PERIOD    3   TIME STEP   25
    SAVE HEAD FOR ALL LAYERS
    SAVE BUDGET
 UBDSV1 SAVING "         STORAGE" ON UNIT  52 AT TIME STEP 25, STRESS PERIOD   3
 UBDSV2 SAVING "   CONSTANT HEAD" ON UNIT  52 AT TIME STEP 25, STRESS PERIOD   3
 UBDSV1 SAVING "FLOW RIGHT FACE " ON UNIT  52 AT TIME STEP 25, STRESS PERIOD   3
 UBDSV1 SAVING "FLOW FRONT FACE " ON UNIT  52 AT TIME STEP 25, STRESS PERIOD   3
 UBDSV4 SAVING "  STREAM LEAKAGE" ON UNIT  52 AT TIME STEP 25, STRESS PERIOD   3



 UBUDSV SAVING "           GW ET" ON UNIT 52 AT TIME STEP 25, STRESS PERIOD    3
 UBUDSV SAVING "    UZF RECHARGE" ON UNIT 52 AT TIME STEP 25, STRESS PERIOD    3
 UBUDSV SAVING " SURFACE LEAKAGE" ON UNIT 52 AT TIME STEP 25, STRESS PERIOD    3
 UBUDSV SAVING "       HORT+DUNN" ON UNIT 52 AT TIME STEP 25, STRESS PERIOD    3
 UBUDSV SAVING "  STORAGE CHANGE" ON UNIT 52 AT TIME STEP 25, STRESS PERIOD    3
 UBDSV4 SAVING "           AG WE" ON UNIT  52 AT TIME STEP 25, STRESS PERIOD   3

 HEAD WILL BE SAVED ON UNIT   51 AT END OF TIME STEP   25, STRESS PERIOD    3
 
 SOLVING FOR HEAD 

    ------------------------------------------------
       NWT REQUIRED            1 OUTER ITERATIONS 
       AND A TOTAL OF          2 INNER ITERATIONS.
    ------------------------------------------------

 OUTPUT CONTROL FOR STRESS PERIOD    3   TIME STEP   26
    SAVE HEAD FOR ALL LAYERS
    SAVE BUDGET
 UBDSV1 SAVING "         STORAGE" ON UNIT  52 AT TIME STEP 26, STRESS PERIOD   3
 UBDSV2 SAVING "   CONSTANT HEAD" ON UNIT  52 AT TIME STEP 26, STRESS PERIOD   3
 UBDSV1 SAVING "FLOW RIGHT FACE " ON UNIT  52 AT TIME STEP 26, STRESS PERIOD   3
 UBDSV1 SAVING "FLOW FRONT FACE " ON UNIT  52 AT TIME STEP 26, STRESS PERIOD   3
 UBDSV4 SAVING "  STREAM LEAKAGE" ON UNIT  52 AT TIME STEP 26, STRESS PERIOD   3



 UBUDSV SAVING "           GW ET" ON UNIT 52 AT TIME STEP 26, STRESS PERIOD    3
 UBUDSV SAVING "    UZF RECHARGE" ON UNIT 52 AT TIME STEP 26, STRESS PERIOD    3
 UBUDSV SAVING " SURFACE LEAKAGE" ON UNIT 52 AT TIME STEP 26, STRESS PERIOD    3
 UBUDSV SAVING "       HORT+DUNN" ON UNIT 52 AT TIME STEP 26, STRESS PERIOD    3
 UBUDSV SAVING "  STORAGE CHANGE" ON UNIT 52 AT TIME STEP 26, STRESS PERIOD    3
 UBDSV4 SAVING "           AG WE" ON UNIT  52 AT TIME STEP 26, STRESS PERIOD   3

 HEAD WILL BE SAVED ON UNIT   51 AT END OF TIME STEP   26, STRESS PERIOD    3
 
 SOLVING FOR HEAD 

    ------------------------------------------------
       NWT REQUIRED            1 OUTER ITERATIONS 
       AND A TOTAL OF          2 INNER ITERATIONS.
    ------------------------------------------------

 OUTPUT CONTROL FOR STRESS PERIOD    3   TIME STEP   27
    SAVE HEAD FOR ALL LAYERS
    SAVE BUDGET
 UBDSV1 SAVING "         STORAGE" ON UNIT  52 AT TIME STEP 27, STRESS PERIOD   3
 UBDSV2 SAVING "   CONSTANT HEAD" ON UNIT  52 AT TIME STEP 27, STRESS PERIOD   3
 UBDSV1 SAVING "FLOW RIGHT FACE " ON UNIT  52 AT TIME STEP 27, STRESS PERIOD   3
 UBDSV1 SAVING "FLOW FRONT FACE " ON UNIT  52 AT TIME STEP 27, STRESS PERIOD   3
 UBDSV4 SAVING "  STREAM LEAKAGE" ON UNIT  52 AT TIME STEP 27, STRESS PERIOD   3



 UBUDSV SAVING "           GW ET" ON UNIT 52 AT TIME STEP 27, STRESS PERIOD    3
 UBUDSV SAVING "    UZF RECHARGE" ON UNIT 52 AT TIME STEP 27, STRESS PERIOD    3
 UBUDSV SAVING " SURFACE LEAKAGE" ON UNIT 52 AT TIME STEP 27, STRESS PERIOD    3
 UBUDSV SAVING "       HORT+DUNN" ON UNIT 52 AT TIME STEP 27, STRESS PERIOD    3
 UBUDSV SAVING "  STORAGE CHANGE" ON UNIT 52 AT TIME STEP 27, STRESS PERIOD    3
 UBDSV4 SAVING "           AG WE" ON UNIT  52 AT TIME STEP 27, STRESS PERIOD   3

 HEAD WILL BE SAVED ON UNIT   51 AT END OF TIME STEP   27, STRESS PERIOD    3
 
 SOLVING FOR HEAD 

    ------------------------------------------------
       NWT REQUIRED            1 OUTER ITERATIONS 
       AND A TOTAL OF          2 INNER ITERATIONS.
    ------------------------------------------------

 OUTPUT CONTROL FOR STRESS PERIOD    3   TIME STEP   28
    SAVE HEAD FOR ALL LAYERS
    SAVE BUDGET
 UBDSV1 SAVING "         STORAGE" ON UNIT  52 AT TIME STEP 28, STRESS PERIOD   3
 UBDSV2 SAVING "   CONSTANT HEAD" ON UNIT  52 AT TIME STEP 28, STRESS PERIOD   3
 UBDSV1 SAVING "FLOW RIGHT FACE " ON UNIT  52 AT TIME STEP 28, STRESS PERIOD   3
 UBDSV1 SAVING "FLOW FRONT FACE " ON UNIT  52 AT TIME STEP 28, STRESS PERIOD   3
 UBDSV4 SAVING "  STREAM LEAKAGE" ON UNIT  52 AT TIME STEP 28, STRESS PERIOD   3



 UBUDSV SAVING "           GW ET" ON UNIT 52 AT TIME STEP 28, STRESS PERIOD    3
 UBUDSV SAVING "    UZF RECHARGE" ON UNIT 52 AT TIME STEP 28, STRESS PERIOD    3
 UBUDSV SAVING " SURFACE LEAKAGE" ON UNIT 52 AT TIME STEP 28, STRESS PERIOD    3
 UBUDSV SAVING "       HORT+DUNN" ON UNIT 52 AT TIME STEP 28, STRESS PERIOD    3
 UBUDSV SAVING "  STORAGE CHANGE" ON UNIT 52 AT TIME STEP 28, STRESS PERIOD    3
 UBDSV4 SAVING "           AG WE" ON UNIT  52 AT TIME STEP 28, STRESS PERIOD   3

 HEAD WILL BE SAVED ON UNIT   51 AT END OF TIME STEP   28, STRESS PERIOD    3
 
 SOLVING FOR HEAD 

    ------------------------------------------------
       NWT REQUIRED            1 OUTER ITERATIONS 
       AND A TOTAL OF          2 INNER ITERATIONS.
    ------------------------------------------------

 OUTPUT CONTROL FOR STRESS PERIOD    3   TIME STEP   29
    SAVE HEAD FOR ALL LAYERS
    SAVE BUDGET
 UBDSV1 SAVING "         STORAGE" ON UNIT  52 AT TIME STEP 29, STRESS PERIOD   3
 UBDSV2 SAVING "   CONSTANT HEAD" ON UNIT  52 AT TIME STEP 29, STRESS PERIOD   3
 UBDSV1 SAVING "FLOW RIGHT FACE " ON UNIT  52 AT TIME STEP 29, STRESS PERIOD   3
 UBDSV1 SAVING "FLOW FRONT FACE " ON UNIT  52 AT TIME STEP 29, STRESS PERIOD   3
 UBDSV4 SAVING "  STREAM LEAKAGE" ON UNIT  52 AT TIME STEP 29, STRESS PERIOD   3



 UBUDSV SAVING "           GW ET" ON UNIT 52 AT TIME STEP 29, STRESS PERIOD    3
 UBUDSV SAVING "    UZF RECHARGE" ON UNIT 52 AT TIME STEP 29, STRESS PERIOD    3
 UBUDSV SAVING " SURFACE LEAKAGE" ON UNIT 52 AT TIME STEP 29, STRESS PERIOD    3
 UBUDSV SAVING "       HORT+DUNN" ON UNIT 52 AT TIME STEP 29, STRESS PERIOD    3
 UBUDSV SAVING "  STORAGE CHANGE" ON UNIT 52 AT TIME STEP 29, STRESS PERIOD    3
 UBDSV4 SAVING "           AG WE" ON UNIT  52 AT TIME STEP 29, STRESS PERIOD   3

 HEAD WILL BE SAVED ON UNIT   51 AT END OF TIME STEP   29, STRESS PERIOD    3
 
 SOLVING FOR HEAD 

    ------------------------------------------------
       NWT REQUIRED            1 OUTER ITERATIONS 
       AND A TOTAL OF          2 INNER ITERATIONS.
    ------------------------------------------------

 OUTPUT CONTROL FOR STRESS PERIOD    3   TIME STEP   30
    SAVE HEAD FOR ALL LAYERS
    SAVE BUDGET
 UBDSV1 SAVING "         STORAGE" ON UNIT  52 AT TIME STEP 30, STRESS PERIOD   3
 UBDSV2 SAVING "   CONSTANT HEAD" ON UNIT  52 AT TIME STEP 30, STRESS PERIOD   3
 UBDSV1 SAVING "FLOW RIGHT FACE " ON UNIT  52 AT TIME STEP 30, STRESS PERIOD   3
 UBDSV1 SAVING "FLOW FRONT FACE " ON UNIT  52 AT TIME STEP 30, STRESS PERIOD   3
 UBDSV4 SAVING "  STREAM LEAKAGE" ON UNIT  52 AT TIME STEP 30, STRESS PERIOD   3



 UBUDSV SAVING "           GW ET" ON UNIT 52 AT TIME STEP 30, STRESS PERIOD    3
 UBUDSV SAVING "    UZF RECHARGE" ON UNIT 52 AT TIME STEP 30, STRESS PERIOD    3
 UBUDSV SAVING " SURFACE LEAKAGE" ON UNIT 52 AT TIME STEP 30, STRESS PERIOD    3
 UBUDSV SAVING "       HORT+DUNN" ON UNIT 52 AT TIME STEP 30, STRESS PERIOD    3
 UBUDSV SAVING "  STORAGE CHANGE" ON UNIT 52 AT TIME STEP 30, STRESS PERIOD    3
 UBDSV4 SAVING "           AG WE" ON UNIT  52 AT TIME STEP 30, STRESS PERIOD   3

 HEAD WILL BE SAVED ON UNIT   51 AT END OF TIME STEP   30, STRESS PERIOD    3
 
 SOLVING FOR HEAD 

    ------------------------------------------------
       NWT REQUIRED            1 OUTER ITERATIONS 
       AND A TOTAL OF          2 INNER ITERATIONS.
    ------------------------------------------------

 OUTPUT CONTROL FOR STRESS PERIOD    3   TIME STEP   31
    SAVE HEAD FOR ALL LAYERS
    SAVE BUDGET
 UBDSV1 SAVING "         STORAGE" ON UNIT  52 AT TIME STEP 31, STRESS PERIOD   3
 UBDSV2 SAVING "   CONSTANT HEAD" ON UNIT  52 AT TIME STEP 31, STRESS PERIOD   3
 UBDSV1 SAVING "FLOW RIGHT FACE " ON UNIT  52 AT TIME STEP 31, STRESS PERIOD   3
 UBDSV1 SAVING "FLOW FRONT FACE " ON UNIT  52 AT TIME STEP 31, STRESS PERIOD   3
 UBDSV4 SAVING "  STREAM LEAKAGE" ON UNIT  52 AT TIME STEP 31, STRESS PERIOD   3



 UBUDSV SAVING "           GW ET" ON UNIT 52 AT TIME STEP 31, STRESS PERIOD    3
 UBUDSV SAVING "    UZF RECHARGE" ON UNIT 52 AT TIME STEP 31, STRESS PERIOD    3
 UBUDSV SAVING " SURFACE LEAKAGE" ON UNIT 52 AT TIME STEP 31, STRESS PERIOD    3
 UBUDSV SAVING "       HORT+DUNN" ON UNIT 52 AT TIME STEP 31, STRESS PERIOD    3
 UBUDSV SAVING "  STORAGE CHANGE" ON UNIT 52 AT TIME STEP 31, STRESS PERIOD    3


UNSATURATED ZONE PACKAGE VOLUMETRIC BUDGET FOR  TIME STEP    31 STRESS PERIOD    3
  ------------------------------------------------------------------------------



     CUMULATIVE VOLUMES      L**3       RATES FOR THIS TIME STEP      L**3/T
     ------------------                 ------------------------

           IN:                                      IN:
           ---                                      ---
        INFILTRATION =       99026.0486          INFILTRATION =         879.7382

          OUT:                                     OUT:
          ----                                     ----
              UZF ET =       71010.9167                UZF ET =        1219.1508
        UZF RECHARGE =        3522.8320          UZF RECHARGE =          26.5568

            IN - OUT =       24492.2999              IN - OUT =        -365.9693

          STORAGE:                                 STORAGE:
          --------                                 --------
      STORAGE CHANGE =       24492.1599        STORAGE CHANGE =        -365.9693

 PERCENT DISCREPANCY IS DIFFERENCE BETWEEN IN-OUT MINUS CHANGE IN STORAGE
 DIVIDED BY THE AVERAGE OF IN AND OUT TIMES 100

 PERCENT DISCREPANCY =           0.00     PERCENT DISCREPANCY =          -0.00






 UBDSV4 SAVING "           AG WE" ON UNIT  52 AT TIME STEP 31, STRESS PERIOD   3
1
  VOLUMETRIC BUDGET FOR AGRICULTURAL FIELDS AT TIME STEP   31, STRESS PERIOD   3
  ------------------------------------------------------------------------------

     CUMULATIVE VOLUMES      L**3       RATES FOR THIS TIME STEP      L**3/T
     ------------------                 ------------------------

           IN:                                      IN:
           ---                                      ---
               AG WELLS  =           0.0000                 AG WELLS  =           0.0000
      DIVERSION SEGMENTS =          39.8578        DIVERSION SEGMENTS =           0.0000
           GW IRRIGATION =           0.0000             GW IRRIGATION =           0.0000
           SW IRRIGATION =           0.0000             SW IRRIGATION =           0.0000
        SYSTEM LOSSES GW =           0.0000          SYSTEM LOSSES GW =           0.0000
        SYSTEM LOSSES SW =           0.0000          SYSTEM LOSSES SW =           0.0000

                TOTAL IN =          39.8578                  TOTAL IN =           0.0000

          OUT:                                     OUT:
          ----                                     ----
               AG WELLS  =           0.0000                 AG WELLS  =           0.0000
      DIVERSION SEGMENTS =           0.0000        DIVERSION SEGMENTS =           0.0000
           GW IRRIGATION =           0.0000             GW IRRIGATION =           0.0000
           SW IRRIGATION =          39.8578             SW IRRIGATION =           0.0000
        SYSTEM LOSSES GW =           0.0000          SYSTEM LOSSES GW =           0.0000
        SYSTEM LOSSES SW =           0.0000          SYSTEM LOSSES SW =           0.0000

               TOTAL OUT =          39.8578                 TOTAL OUT =           0.0000

                IN - OUT =           0.0000                  IN - OUT =           0.0000

     PERCENT DISCREPANCY =           0.00         PERCENT DISCREPANCY =           0.00




 HEAD WILL BE SAVED ON UNIT   51 AT END OF TIME STEP   31, STRESS PERIOD    3
1
  VOLUMETRIC BUDGET FOR ENTIRE MODEL AT END OF TIME STEP   31, STRESS PERIOD   3
  ------------------------------------------------------------------------------

     CUMULATIVE VOLUMES      L**3       RATES FOR THIS TIME STEP      L**3/T
     ------------------                 ------------------------

           IN:                                      IN:
           ---                                      ---
             STORAGE     =           0.0000               STORAGE     =           0.0000
       CONSTANT HEAD     =           0.0000         CONSTANT HEAD     =           0.0000
      STREAM LEAKAGE     =           6.8421        STREAM LEAKAGE     =       7.6023E-02
        UZF RECHARGE     =        3522.8323          UZF RECHARGE     =          26.5568
               GW ET     =           0.0000                 GW ET     =           0.0000
     SURFACE LEAKAGE     =           0.0000       SURFACE LEAKAGE     =           0.0000
           AG WELLS      =           0.0000             AG WELLS      =           0.0000

                TOTAL IN =        3529.6743                  TOTAL IN =          26.6328

          OUT:                                     OUT:
          ----                                     ----
             STORAGE     =        3195.3486               STORAGE     =          24.4326
       CONSTANT HEAD     =           0.0000         CONSTANT HEAD     =           0.0000
      STREAM LEAKAGE     =           0.0000        STREAM LEAKAGE     =           0.0000
        UZF RECHARGE     =           0.0000          UZF RECHARGE     =           0.0000
               GW ET     =           0.0000                 GW ET     =           0.0000
     SURFACE LEAKAGE     =           0.0000       SURFACE LEAKAGE     =           0.0000
           AG WELLS      =           0.0000             AG WELLS      =           0.0000

               TOTAL OUT =        3195.3486                 TOTAL OUT =          24.4326

                IN - OUT =         334.3257                  IN - OUT =           2.2002

     PERCENT DISCREPANCY =           9.94         PERCENT DISCREPANCY =           8.62






         TIME SUMMARY AT END OF TIME STEP   31 IN STRESS PERIOD    3
                    SECONDS     MINUTES      HOURS       DAYS        YEARS
                    -----------------------------------------------------------
   TIME STEP LENGTH  86400.      1440.0      24.000      1.0000     2.73785E-03
 STRESS PERIOD TIME 2.67840E+06  44640.      744.00      31.000     8.48734E-02
         TOTAL TIME 7.77600E+06 1.29600E+05  2160.0      90.000     0.24641    
1
1
                            STRESS PERIOD NO.    4, LENGTH =   30.00000    
                            -----------------------------------------------

                              NUMBER OF TIME STEPS =    30

                               MULTIPLIER FOR DELT =     1.000

                            INITIAL TIME STEP SIZE =   1.000000    



 CLASSIFICATION & COUNT OF STREAM SEGMENTS BASED ON SOURCE OF INFLOW:

                HEADWATER     DIVERSION     RECEIVES TRIBUTARY FLOW
                ---------     ---------     -----------------------
                     1              2               9



                    INPUT DATA FOR EACH STREAM SEGMENT
 ---------------------------------------------------------------------------------------------

 SEGMENT    SEG.     INFLOW   OVERLAND   STREAM    STREAM   ICALC  OUTFLOW  DIVERSION PRIORITY
    NO.    LENGTH     RATE     RUNOFF      ET       PPT.    METH.  TO SEG.  FROM SEG.    NO.

      1  1.000E+02 5.000E+01 0.000E+00 0.000E+00 0.000E+00    1        2        0        0
      2  1.000E+02 0.000E+00 0.000E+00 0.000E+00 0.000E+00    1        3        0        0
      3  1.000E+02 0.000E+00 0.000E+00 0.000E+00 0.000E+00    1        4        0        0
      4  1.000E+02 0.000E+00 0.000E+00 0.000E+00 0.000E+00    1        5        0        0
      5  1.000E+02 0.000E+00 0.000E+00 0.000E+00 0.000E+00    1        6        0        0
      6  1.000E+02 0.000E+00 0.000E+00 0.000E+00 0.000E+00    1        7        0        0
      7  1.000E+02 0.000E+00 0.000E+00 0.000E+00 0.000E+00    1        8        0        0
      8  1.000E+02 0.000E+00 0.000E+00 0.000E+00 0.000E+00    1        9        0        0
      9  1.000E+02 0.000E+00 0.000E+00 0.000E+00 0.000E+00    1       10        0        0
     10  1.000E+02 0.000E+00 0.000E+00 0.000E+00 0.000E+00    1        0        0        0
     11  1.000E+02 2.000E+01 0.000E+00 0.000E+00 0.000E+00    1        0        3        0
     12  1.000E+02 1.000E+01 0.000E+00 0.000E+00 0.000E+00    1        0        5        0


         STREAMBED PROPERTIES AND STREAM DIMENSIONS

 SEGMENT     BED HYD. COND.      BED THICKNESS     ELEV.-TOP OF BED     WIDTH OF STREAM     DEPTH OF STREAM    STREAM ROUGHNESS
    No.     UPPER     LOWER     UPPER     LOWER     UPPER     LOWER     UPPER     LOWER     UPPER     LOWER   CHANNEL      BANK

     1  1.500E-05 1.500E-05 5.000E-01 5.000E-01 9.900E+01 9.898E+01 5.000E+00 5.000E+00                     3.000E-02
     2  1.500E-05 1.500E-05 5.000E-01 5.000E-01 9.898E+01 9.896E+01 5.000E+00 5.000E+00                     3.000E-02
     3  1.500E-05 1.500E-05 5.000E-01 5.000E-01 9.896E+01 9.894E+01 5.000E+00 5.000E+00                     3.000E-02
     4  1.500E-05 1.500E-05 5.000E-01 5.000E-01 9.894E+01 9.892E+01 5.000E+00 5.000E+00                     3.000E-02
     5  1.500E-05 1.500E-05 5.000E-01 5.000E-01 9.892E+01 9.890E+01 5.000E+00 5.000E+00                     3.000E-02
     6  1.500E-05 1.500E-05 5.000E-01 5.000E-01 9.890E+01 9.888E+01 5.000E+00 5.000E+00                     3.000E-02
     7  1.500E-05 1.500E-05 5.000E-01 5.000E-01 9.888E+01 9.886E+01 5.000E+00 5.000E+00                     3.000E-02
     8  1.500E-05 1.500E-05 5.000E-01 5.000E-01 9.886E+01 9.884E+01 5.000E+00 5.000E+00                     3.000E-02
     9  1.500E-05 1.500E-05 5.000E-01 5.000E-01 9.884E+01 9.882E+01 5.000E+00 5.000E+00                     3.000E-02
    10  1.500E-05 1.500E-05 5.000E-01 5.000E-01 9.882E+01 9.880E+01 5.000E+00 5.000E+00                     3.000E-02
    11  1.500E-05 1.500E-05 5.000E-01 5.000E-01 9.894E+01 9.892E+01 5.000E+00 5.000E+00                     3.000E-02
    12  1.500E-05 1.500E-05 5.000E-01 5.000E-01 9.890E+01 9.888E+01 5.000E+00 5.000E+00                     3.000E-02






            AREAL INFILTRATION RATE
 READING ON UNIT   19 WITH FORMAT: (10E15.6)           



                            ET RATE
 READING ON UNIT   19 WITH FORMAT: (10E15.6)           



                ET EXTINCTION DEPTH
 READING ON UNIT   19 WITH FORMAT: (10E15.6)           



           EXTINCTION WATER CONTENT
 READING ON UNIT   19 WITH FORMAT: (10E15.6)           

 PROCESSING AG STRESS PERIOD DATA

 READING AG STRESS PERIOD DATA

 READING IRRIGATION SEGMENT

 READING IRRIGATION WELL

 READING SUPPLEMENTAL WELL

 END PROCESSING AG STRESS PERIOD DATA OPTIONS
 
 SOLVING FOR HEAD 

    ------------------------------------------------
       NWT REQUIRED            1 OUTER ITERATIONS 
       AND A TOTAL OF          2 INNER ITERATIONS.
    ------------------------------------------------

 OUTPUT CONTROL FOR STRESS PERIOD    4   TIME STEP    1
    SAVE HEAD FOR ALL LAYERS
    SAVE BUDGET
 UBDSV1 SAVING "         STORAGE" ON UNIT  52 AT TIME STEP  1, STRESS PERIOD   4
 UBDSV2 SAVING "   CONSTANT HEAD" ON UNIT  52 AT TIME STEP  1, STRESS PERIOD   4
 UBDSV1 SAVING "FLOW RIGHT FACE " ON UNIT  52 AT TIME STEP  1, STRESS PERIOD   4
 UBDSV1 SAVING "FLOW FRONT FACE " ON UNIT  52 AT TIME STEP  1, STRESS PERIOD   4
 UBDSV4 SAVING "  STREAM LEAKAGE" ON UNIT  52 AT TIME STEP  1, STRESS PERIOD   4



 UBUDSV SAVING "           GW ET" ON UNIT 52 AT TIME STEP  1, STRESS PERIOD    4
 UBUDSV SAVING "    UZF RECHARGE" ON UNIT 52 AT TIME STEP  1, STRESS PERIOD    4
 UBUDSV SAVING " SURFACE LEAKAGE" ON UNIT 52 AT TIME STEP  1, STRESS PERIOD    4
 UBUDSV SAVING "       HORT+DUNN" ON UNIT 52 AT TIME STEP  1, STRESS PERIOD    4
 UBUDSV SAVING "  STORAGE CHANGE" ON UNIT 52 AT TIME STEP  1, STRESS PERIOD    4
 UBDSV4 SAVING "           AG WE" ON UNIT  52 AT TIME STEP  1, STRESS PERIOD   4

 HEAD WILL BE SAVED ON UNIT   51 AT END OF TIME STEP    1, STRESS PERIOD    4
 
 SOLVING FOR HEAD 

    ------------------------------------------------
       NWT REQUIRED            1 OUTER ITERATIONS 
       AND A TOTAL OF          2 INNER ITERATIONS.
    ------------------------------------------------

 OUTPUT CONTROL FOR STRESS PERIOD    4   TIME STEP    2
    SAVE HEAD FOR ALL LAYERS
    SAVE BUDGET
 UBDSV1 SAVING "         STORAGE" ON UNIT  52 AT TIME STEP  2, STRESS PERIOD   4
 UBDSV2 SAVING "   CONSTANT HEAD" ON UNIT  52 AT TIME STEP  2, STRESS PERIOD   4
 UBDSV1 SAVING "FLOW RIGHT FACE " ON UNIT  52 AT TIME STEP  2, STRESS PERIOD   4
 UBDSV1 SAVING "FLOW FRONT FACE " ON UNIT  52 AT TIME STEP  2, STRESS PERIOD   4
 UBDSV4 SAVING "  STREAM LEAKAGE" ON UNIT  52 AT TIME STEP  2, STRESS PERIOD   4



 UBUDSV SAVING "           GW ET" ON UNIT 52 AT TIME STEP  2, STRESS PERIOD    4
 UBUDSV SAVING "    UZF RECHARGE" ON UNIT 52 AT TIME STEP  2, STRESS PERIOD    4
 UBUDSV SAVING " SURFACE LEAKAGE" ON UNIT 52 AT TIME STEP  2, STRESS PERIOD    4
 UBUDSV SAVING "       HORT+DUNN" ON UNIT 52 AT TIME STEP  2, STRESS PERIOD    4
 UBUDSV SAVING "  STORAGE CHANGE" ON UNIT 52 AT TIME STEP  2, STRESS PERIOD    4
 UBDSV4 SAVING "           AG WE" ON UNIT  52 AT TIME STEP  2, STRESS PERIOD   4

 HEAD WILL BE SAVED ON UNIT   51 AT END OF TIME STEP    2, STRESS PERIOD    4
 
 SOLVING FOR HEAD 

    ------------------------------------------------
       NWT REQUIRED            1 OUTER ITERATIONS 
       AND A TOTAL OF          2 INNER ITERATIONS.
    ------------------------------------------------

 OUTPUT CONTROL FOR STRESS PERIOD    4   TIME STEP    3
    SAVE HEAD FOR ALL LAYERS
    SAVE BUDGET
 UBDSV1 SAVING "         STORAGE" ON UNIT  52 AT TIME STEP  3, STRESS PERIOD   4
 UBDSV2 SAVING "   CONSTANT HEAD" ON UNIT  52 AT TIME STEP  3, STRESS PERIOD   4
 UBDSV1 SAVING "FLOW RIGHT FACE " ON UNIT  52 AT TIME STEP  3, STRESS PERIOD   4
 UBDSV1 SAVING "FLOW FRONT FACE " ON UNIT  52 AT TIME STEP  3, STRESS PERIOD   4
 UBDSV4 SAVING "  STREAM LEAKAGE" ON UNIT  52 AT TIME STEP  3, STRESS PERIOD   4



 UBUDSV SAVING "           GW ET" ON UNIT 52 AT TIME STEP  3, STRESS PERIOD    4
 UBUDSV SAVING "    UZF RECHARGE" ON UNIT 52 AT TIME STEP  3, STRESS PERIOD    4
 UBUDSV SAVING " SURFACE LEAKAGE" ON UNIT 52 AT TIME STEP  3, STRESS PERIOD    4
 UBUDSV SAVING "       HORT+DUNN" ON UNIT 52 AT TIME STEP  3, STRESS PERIOD    4
 UBUDSV SAVING "  STORAGE CHANGE" ON UNIT 52 AT TIME STEP  3, STRESS PERIOD    4
 UBDSV4 SAVING "           AG WE" ON UNIT  52 AT TIME STEP  3, STRESS PERIOD   4

 HEAD WILL BE SAVED ON UNIT   51 AT END OF TIME STEP    3, STRESS PERIOD    4
 
 SOLVING FOR HEAD 

    ------------------------------------------------
       NWT REQUIRED            1 OUTER ITERATIONS 
       AND A TOTAL OF          2 INNER ITERATIONS.
    ------------------------------------------------

 OUTPUT CONTROL FOR STRESS PERIOD    4   TIME STEP    4
    SAVE HEAD FOR ALL LAYERS
    SAVE BUDGET
 UBDSV1 SAVING "         STORAGE" ON UNIT  52 AT TIME STEP  4, STRESS PERIOD   4
 UBDSV2 SAVING "   CONSTANT HEAD" ON UNIT  52 AT TIME STEP  4, STRESS PERIOD   4
 UBDSV1 SAVING "FLOW RIGHT FACE " ON UNIT  52 AT TIME STEP  4, STRESS PERIOD   4
 UBDSV1 SAVING "FLOW FRONT FACE " ON UNIT  52 AT TIME STEP  4, STRESS PERIOD   4
 UBDSV4 SAVING "  STREAM LEAKAGE" ON UNIT  52 AT TIME STEP  4, STRESS PERIOD   4



 UBUDSV SAVING "           GW ET" ON UNIT 52 AT TIME STEP  4, STRESS PERIOD    4
 UBUDSV SAVING "    UZF RECHARGE" ON UNIT 52 AT TIME STEP  4, STRESS PERIOD    4
 UBUDSV SAVING " SURFACE LEAKAGE" ON UNIT 52 AT TIME STEP  4, STRESS PERIOD    4
 UBUDSV SAVING "       HORT+DUNN" ON UNIT 52 AT TIME STEP  4, STRESS PERIOD    4
 UBUDSV SAVING "  STORAGE CHANGE" ON UNIT 52 AT TIME STEP  4, STRESS PERIOD    4
 UBDSV4 SAVING "           AG WE" ON UNIT  52 AT TIME STEP  4, STRESS PERIOD   4

 HEAD WILL BE SAVED ON UNIT   51 AT END OF TIME STEP    4, STRESS PERIOD    4
 
 SOLVING FOR HEAD 

    ------------------------------------------------
       NWT REQUIRED            1 OUTER ITERATIONS 
       AND A TOTAL OF          2 INNER ITERATIONS.
    ------------------------------------------------

 OUTPUT CONTROL FOR STRESS PERIOD    4   TIME STEP    5
    SAVE HEAD FOR ALL LAYERS
    SAVE BUDGET
 UBDSV1 SAVING "         STORAGE" ON UNIT  52 AT TIME STEP  5, STRESS PERIOD   4
 UBDSV2 SAVING "   CONSTANT HEAD" ON UNIT  52 AT TIME STEP  5, STRESS PERIOD   4
 UBDSV1 SAVING "FLOW RIGHT FACE " ON UNIT  52 AT TIME STEP  5, STRESS PERIOD   4
 UBDSV1 SAVING "FLOW FRONT FACE " ON UNIT  52 AT TIME STEP  5, STRESS PERIOD   4
 UBDSV4 SAVING "  STREAM LEAKAGE" ON UNIT  52 AT TIME STEP  5, STRESS PERIOD   4



 UBUDSV SAVING "           GW ET" ON UNIT 52 AT TIME STEP  5, STRESS PERIOD    4
 UBUDSV SAVING "    UZF RECHARGE" ON UNIT 52 AT TIME STEP  5, STRESS PERIOD    4
 UBUDSV SAVING " SURFACE LEAKAGE" ON UNIT 52 AT TIME STEP  5, STRESS PERIOD    4
 UBUDSV SAVING "       HORT+DUNN" ON UNIT 52 AT TIME STEP  5, STRESS PERIOD    4
 UBUDSV SAVING "  STORAGE CHANGE" ON UNIT 52 AT TIME STEP  5, STRESS PERIOD    4
 UBDSV4 SAVING "           AG WE" ON UNIT  52 AT TIME STEP  5, STRESS PERIOD   4

 HEAD WILL BE SAVED ON UNIT   51 AT END OF TIME STEP    5, STRESS PERIOD    4
 
 SOLVING FOR HEAD 

    ------------------------------------------------
       NWT REQUIRED            1 OUTER ITERATIONS 
       AND A TOTAL OF          2 INNER ITERATIONS.
    ------------------------------------------------

 OUTPUT CONTROL FOR STRESS PERIOD    4   TIME STEP    6
    SAVE HEAD FOR ALL LAYERS
    SAVE BUDGET
 UBDSV1 SAVING "         STORAGE" ON UNIT  52 AT TIME STEP  6, STRESS PERIOD   4
 UBDSV2 SAVING "   CONSTANT HEAD" ON UNIT  52 AT TIME STEP  6, STRESS PERIOD   4
 UBDSV1 SAVING "FLOW RIGHT FACE " ON UNIT  52 AT TIME STEP  6, STRESS PERIOD   4
 UBDSV1 SAVING "FLOW FRONT FACE " ON UNIT  52 AT TIME STEP  6, STRESS PERIOD   4
 UBDSV4 SAVING "  STREAM LEAKAGE" ON UNIT  52 AT TIME STEP  6, STRESS PERIOD   4



 UBUDSV SAVING "           GW ET" ON UNIT 52 AT TIME STEP  6, STRESS PERIOD    4
 UBUDSV SAVING "    UZF RECHARGE" ON UNIT 52 AT TIME STEP  6, STRESS PERIOD    4
 UBUDSV SAVING " SURFACE LEAKAGE" ON UNIT 52 AT TIME STEP  6, STRESS PERIOD    4
 UBUDSV SAVING "       HORT+DUNN" ON UNIT 52 AT TIME STEP  6, STRESS PERIOD    4
 UBUDSV SAVING "  STORAGE CHANGE" ON UNIT 52 AT TIME STEP  6, STRESS PERIOD    4
 UBDSV4 SAVING "           AG WE" ON UNIT  52 AT TIME STEP  6, STRESS PERIOD   4

 HEAD WILL BE SAVED ON UNIT   51 AT END OF TIME STEP    6, STRESS PERIOD    4
 
 SOLVING FOR HEAD 

    ------------------------------------------------
       NWT REQUIRED            1 OUTER ITERATIONS 
       AND A TOTAL OF          2 INNER ITERATIONS.
    ------------------------------------------------

 OUTPUT CONTROL FOR STRESS PERIOD    4   TIME STEP    7
    SAVE HEAD FOR ALL LAYERS
    SAVE BUDGET
 UBDSV1 SAVING "         STORAGE" ON UNIT  52 AT TIME STEP  7, STRESS PERIOD   4
 UBDSV2 SAVING "   CONSTANT HEAD" ON UNIT  52 AT TIME STEP  7, STRESS PERIOD   4
 UBDSV1 SAVING "FLOW RIGHT FACE " ON UNIT  52 AT TIME STEP  7, STRESS PERIOD   4
 UBDSV1 SAVING "FLOW FRONT FACE " ON UNIT  52 AT TIME STEP  7, STRESS PERIOD   4
 UBDSV4 SAVING "  STREAM LEAKAGE" ON UNIT  52 AT TIME STEP  7, STRESS PERIOD   4



 UBUDSV SAVING "           GW ET" ON UNIT 52 AT TIME STEP  7, STRESS PERIOD    4
 UBUDSV SAVING "    UZF RECHARGE" ON UNIT 52 AT TIME STEP  7, STRESS PERIOD    4
 UBUDSV SAVING " SURFACE LEAKAGE" ON UNIT 52 AT TIME STEP  7, STRESS PERIOD    4
 UBUDSV SAVING "       HORT+DUNN" ON UNIT 52 AT TIME STEP  7, STRESS PERIOD    4
 UBUDSV SAVING "  STORAGE CHANGE" ON UNIT 52 AT TIME STEP  7, STRESS PERIOD    4
 UBDSV4 SAVING "           AG WE" ON UNIT  52 AT TIME STEP  7, STRESS PERIOD   4

 HEAD WILL BE SAVED ON UNIT   51 AT END OF TIME STEP    7, STRESS PERIOD    4
 
 SOLVING FOR HEAD 

    ------------------------------------------------
       NWT REQUIRED            1 OUTER ITERATIONS 
       AND A TOTAL OF          2 INNER ITERATIONS.
    ------------------------------------------------

 OUTPUT CONTROL FOR STRESS PERIOD    4   TIME STEP    8
    SAVE HEAD FOR ALL LAYERS
    SAVE BUDGET
 UBDSV1 SAVING "         STORAGE" ON UNIT  52 AT TIME STEP  8, STRESS PERIOD   4
 UBDSV2 SAVING "   CONSTANT HEAD" ON UNIT  52 AT TIME STEP  8, STRESS PERIOD   4
 UBDSV1 SAVING "FLOW RIGHT FACE " ON UNIT  52 AT TIME STEP  8, STRESS PERIOD   4
 UBDSV1 SAVING "FLOW FRONT FACE " ON UNIT  52 AT TIME STEP  8, STRESS PERIOD   4
 UBDSV4 SAVING "  STREAM LEAKAGE" ON UNIT  52 AT TIME STEP  8, STRESS PERIOD   4



 UBUDSV SAVING "           GW ET" ON UNIT 52 AT TIME STEP  8, STRESS PERIOD    4
 UBUDSV SAVING "    UZF RECHARGE" ON UNIT 52 AT TIME STEP  8, STRESS PERIOD    4
 UBUDSV SAVING " SURFACE LEAKAGE" ON UNIT 52 AT TIME STEP  8, STRESS PERIOD    4
 UBUDSV SAVING "       HORT+DUNN" ON UNIT 52 AT TIME STEP  8, STRESS PERIOD    4
 UBUDSV SAVING "  STORAGE CHANGE" ON UNIT 52 AT TIME STEP  8, STRESS PERIOD    4
 UBDSV4 SAVING "           AG WE" ON UNIT  52 AT TIME STEP  8, STRESS PERIOD   4

 HEAD WILL BE SAVED ON UNIT   51 AT END OF TIME STEP    8, STRESS PERIOD    4
 
 SOLVING FOR HEAD 

    ------------------------------------------------
       NWT REQUIRED            1 OUTER ITERATIONS 
       AND A TOTAL OF          2 INNER ITERATIONS.
    ------------------------------------------------

 OUTPUT CONTROL FOR STRESS PERIOD    4   TIME STEP    9
    SAVE HEAD FOR ALL LAYERS
    SAVE BUDGET
 UBDSV1 SAVING "         STORAGE" ON UNIT  52 AT TIME STEP  9, STRESS PERIOD   4
 UBDSV2 SAVING "   CONSTANT HEAD" ON UNIT  52 AT TIME STEP  9, STRESS PERIOD   4
 UBDSV1 SAVING "FLOW RIGHT FACE " ON UNIT  52 AT TIME STEP  9, STRESS PERIOD   4
 UBDSV1 SAVING "FLOW FRONT FACE " ON UNIT  52 AT TIME STEP  9, STRESS PERIOD   4
 UBDSV4 SAVING "  STREAM LEAKAGE" ON UNIT  52 AT TIME STEP  9, STRESS PERIOD   4



 UBUDSV SAVING "           GW ET" ON UNIT 52 AT TIME STEP  9, STRESS PERIOD    4
 UBUDSV SAVING "    UZF RECHARGE" ON UNIT 52 AT TIME STEP  9, STRESS PERIOD    4
 UBUDSV SAVING " SURFACE LEAKAGE" ON UNIT 52 AT TIME STEP  9, STRESS PERIOD    4
 UBUDSV SAVING "       HORT+DUNN" ON UNIT 52 AT TIME STEP  9, STRESS PERIOD    4
 UBUDSV SAVING "  STORAGE CHANGE" ON UNIT 52 AT TIME STEP  9, STRESS PERIOD    4
 UBDSV4 SAVING "           AG WE" ON UNIT  52 AT TIME STEP  9, STRESS PERIOD   4

 HEAD WILL BE SAVED ON UNIT   51 AT END OF TIME STEP    9, STRESS PERIOD    4
 
 SOLVING FOR HEAD 

    ------------------------------------------------
       NWT REQUIRED            1 OUTER ITERATIONS 
       AND A TOTAL OF          2 INNER ITERATIONS.
    ------------------------------------------------

 OUTPUT CONTROL FOR STRESS PERIOD    4   TIME STEP   10
    SAVE HEAD FOR ALL LAYERS
    SAVE BUDGET
 UBDSV1 SAVING "         STORAGE" ON UNIT  52 AT TIME STEP 10, STRESS PERIOD   4
 UBDSV2 SAVING "   CONSTANT HEAD" ON UNIT  52 AT TIME STEP 10, STRESS PERIOD   4
 UBDSV1 SAVING "FLOW RIGHT FACE " ON UNIT  52 AT TIME STEP 10, STRESS PERIOD   4
 UBDSV1 SAVING "FLOW FRONT FACE " ON UNIT  52 AT TIME STEP 10, STRESS PERIOD   4
 UBDSV4 SAVING "  STREAM LEAKAGE" ON UNIT  52 AT TIME STEP 10, STRESS PERIOD   4



 UBUDSV SAVING "           GW ET" ON UNIT 52 AT TIME STEP 10, STRESS PERIOD    4
 UBUDSV SAVING "    UZF RECHARGE" ON UNIT 52 AT TIME STEP 10, STRESS PERIOD    4
 UBUDSV SAVING " SURFACE LEAKAGE" ON UNIT 52 AT TIME STEP 10, STRESS PERIOD    4
 UBUDSV SAVING "       HORT+DUNN" ON UNIT 52 AT TIME STEP 10, STRESS PERIOD    4
 UBUDSV SAVING "  STORAGE CHANGE" ON UNIT 52 AT TIME STEP 10, STRESS PERIOD    4
 UBDSV4 SAVING "           AG WE" ON UNIT  52 AT TIME STEP 10, STRESS PERIOD   4

 HEAD WILL BE SAVED ON UNIT   51 AT END OF TIME STEP   10, STRESS PERIOD    4
 
 SOLVING FOR HEAD 

    ------------------------------------------------
       NWT REQUIRED            1 OUTER ITERATIONS 
       AND A TOTAL OF          2 INNER ITERATIONS.
    ------------------------------------------------

 OUTPUT CONTROL FOR STRESS PERIOD    4   TIME STEP   11
    SAVE HEAD FOR ALL LAYERS
    SAVE BUDGET
 UBDSV1 SAVING "         STORAGE" ON UNIT  52 AT TIME STEP 11, STRESS PERIOD   4
 UBDSV2 SAVING "   CONSTANT HEAD" ON UNIT  52 AT TIME STEP 11, STRESS PERIOD   4
 UBDSV1 SAVING "FLOW RIGHT FACE " ON UNIT  52 AT TIME STEP 11, STRESS PERIOD   4
 UBDSV1 SAVING "FLOW FRONT FACE " ON UNIT  52 AT TIME STEP 11, STRESS PERIOD   4
 UBDSV4 SAVING "  STREAM LEAKAGE" ON UNIT  52 AT TIME STEP 11, STRESS PERIOD   4



 UBUDSV SAVING "           GW ET" ON UNIT 52 AT TIME STEP 11, STRESS PERIOD    4
 UBUDSV SAVING "    UZF RECHARGE" ON UNIT 52 AT TIME STEP 11, STRESS PERIOD    4
 UBUDSV SAVING " SURFACE LEAKAGE" ON UNIT 52 AT TIME STEP 11, STRESS PERIOD    4
 UBUDSV SAVING "       HORT+DUNN" ON UNIT 52 AT TIME STEP 11, STRESS PERIOD    4
 UBUDSV SAVING "  STORAGE CHANGE" ON UNIT 52 AT TIME STEP 11, STRESS PERIOD    4
 UBDSV4 SAVING "           AG WE" ON UNIT  52 AT TIME STEP 11, STRESS PERIOD   4

 HEAD WILL BE SAVED ON UNIT   51 AT END OF TIME STEP   11, STRESS PERIOD    4
 
 SOLVING FOR HEAD 

    ------------------------------------------------
       NWT REQUIRED            1 OUTER ITERATIONS 
       AND A TOTAL OF          2 INNER ITERATIONS.
    ------------------------------------------------

 OUTPUT CONTROL FOR STRESS PERIOD    4   TIME STEP   12
    SAVE HEAD FOR ALL LAYERS
    SAVE BUDGET
 UBDSV1 SAVING "         STORAGE" ON UNIT  52 AT TIME STEP 12, STRESS PERIOD   4
 UBDSV2 SAVING "   CONSTANT HEAD" ON UNIT  52 AT TIME STEP 12, STRESS PERIOD   4
 UBDSV1 SAVING "FLOW RIGHT FACE " ON UNIT  52 AT TIME STEP 12, STRESS PERIOD   4
 UBDSV1 SAVING "FLOW FRONT FACE " ON UNIT  52 AT TIME STEP 12, STRESS PERIOD   4
 UBDSV4 SAVING "  STREAM LEAKAGE" ON UNIT  52 AT TIME STEP 12, STRESS PERIOD   4



 UBUDSV SAVING "           GW ET" ON UNIT 52 AT TIME STEP 12, STRESS PERIOD    4
 UBUDSV SAVING "    UZF RECHARGE" ON UNIT 52 AT TIME STEP 12, STRESS PERIOD    4
 UBUDSV SAVING " SURFACE LEAKAGE" ON UNIT 52 AT TIME STEP 12, STRESS PERIOD    4
 UBUDSV SAVING "       HORT+DUNN" ON UNIT 52 AT TIME STEP 12, STRESS PERIOD    4
 UBUDSV SAVING "  STORAGE CHANGE" ON UNIT 52 AT TIME STEP 12, STRESS PERIOD    4
 UBDSV4 SAVING "           AG WE" ON UNIT  52 AT TIME STEP 12, STRESS PERIOD   4

 HEAD WILL BE SAVED ON UNIT   51 AT END OF TIME STEP   12, STRESS PERIOD    4
 
 SOLVING FOR HEAD 

    ------------------------------------------------
       NWT REQUIRED            1 OUTER ITERATIONS 
       AND A TOTAL OF          2 INNER ITERATIONS.
    ------------------------------------------------

 OUTPUT CONTROL FOR STRESS PERIOD    4   TIME STEP   13
    SAVE HEAD FOR ALL LAYERS
    SAVE BUDGET
 UBDSV1 SAVING "         STORAGE" ON UNIT  52 AT TIME STEP 13, STRESS PERIOD   4
 UBDSV2 SAVING "   CONSTANT HEAD" ON UNIT  52 AT TIME STEP 13, STRESS PERIOD   4
 UBDSV1 SAVING "FLOW RIGHT FACE " ON UNIT  52 AT TIME STEP 13, STRESS PERIOD   4
 UBDSV1 SAVING "FLOW FRONT FACE " ON UNIT  52 AT TIME STEP 13, STRESS PERIOD   4
 UBDSV4 SAVING "  STREAM LEAKAGE" ON UNIT  52 AT TIME STEP 13, STRESS PERIOD   4



 UBUDSV SAVING "           GW ET" ON UNIT 52 AT TIME STEP 13, STRESS PERIOD    4
 UBUDSV SAVING "    UZF RECHARGE" ON UNIT 52 AT TIME STEP 13, STRESS PERIOD    4
 UBUDSV SAVING " SURFACE LEAKAGE" ON UNIT 52 AT TIME STEP 13, STRESS PERIOD    4
 UBUDSV SAVING "       HORT+DUNN" ON UNIT 52 AT TIME STEP 13, STRESS PERIOD    4
 UBUDSV SAVING "  STORAGE CHANGE" ON UNIT 52 AT TIME STEP 13, STRESS PERIOD    4
 UBDSV4 SAVING "           AG WE" ON UNIT  52 AT TIME STEP 13, STRESS PERIOD   4

 HEAD WILL BE SAVED ON UNIT   51 AT END OF TIME STEP   13, STRESS PERIOD    4
 
 SOLVING FOR HEAD 

    ------------------------------------------------
       NWT REQUIRED            1 OUTER ITERATIONS 
       AND A TOTAL OF          2 INNER ITERATIONS.
    ------------------------------------------------

 OUTPUT CONTROL FOR STRESS PERIOD    4   TIME STEP   14
    SAVE HEAD FOR ALL LAYERS
    SAVE BUDGET
 UBDSV1 SAVING "         STORAGE" ON UNIT  52 AT TIME STEP 14, STRESS PERIOD   4
 UBDSV2 SAVING "   CONSTANT HEAD" ON UNIT  52 AT TIME STEP 14, STRESS PERIOD   4
 UBDSV1 SAVING "FLOW RIGHT FACE " ON UNIT  52 AT TIME STEP 14, STRESS PERIOD   4
 UBDSV1 SAVING "FLOW FRONT FACE " ON UNIT  52 AT TIME STEP 14, STRESS PERIOD   4
 UBDSV4 SAVING "  STREAM LEAKAGE" ON UNIT  52 AT TIME STEP 14, STRESS PERIOD   4



 UBUDSV SAVING "           GW ET" ON UNIT 52 AT TIME STEP 14, STRESS PERIOD    4
 UBUDSV SAVING "    UZF RECHARGE" ON UNIT 52 AT TIME STEP 14, STRESS PERIOD    4
 UBUDSV SAVING " SURFACE LEAKAGE" ON UNIT 52 AT TIME STEP 14, STRESS PERIOD    4
 UBUDSV SAVING "       HORT+DUNN" ON UNIT 52 AT TIME STEP 14, STRESS PERIOD    4
 UBUDSV SAVING "  STORAGE CHANGE" ON UNIT 52 AT TIME STEP 14, STRESS PERIOD    4
 UBDSV4 SAVING "           AG WE" ON UNIT  52 AT TIME STEP 14, STRESS PERIOD   4

 HEAD WILL BE SAVED ON UNIT   51 AT END OF TIME STEP   14, STRESS PERIOD    4
 
 SOLVING FOR HEAD 

    ------------------------------------------------
       NWT REQUIRED            1 OUTER ITERATIONS 
       AND A TOTAL OF          2 INNER ITERATIONS.
    ------------------------------------------------

 OUTPUT CONTROL FOR STRESS PERIOD    4   TIME STEP   15
    SAVE HEAD FOR ALL LAYERS
    SAVE BUDGET
 UBDSV1 SAVING "         STORAGE" ON UNIT  52 AT TIME STEP 15, STRESS PERIOD   4
 UBDSV2 SAVING "   CONSTANT HEAD" ON UNIT  52 AT TIME STEP 15, STRESS PERIOD   4
 UBDSV1 SAVING "FLOW RIGHT FACE " ON UNIT  52 AT TIME STEP 15, STRESS PERIOD   4
 UBDSV1 SAVING "FLOW FRONT FACE " ON UNIT  52 AT TIME STEP 15, STRESS PERIOD   4
 UBDSV4 SAVING "  STREAM LEAKAGE" ON UNIT  52 AT TIME STEP 15, STRESS PERIOD   4



 UBUDSV SAVING "           GW ET" ON UNIT 52 AT TIME STEP 15, STRESS PERIOD    4
 UBUDSV SAVING "    UZF RECHARGE" ON UNIT 52 AT TIME STEP 15, STRESS PERIOD    4
 UBUDSV SAVING " SURFACE LEAKAGE" ON UNIT 52 AT TIME STEP 15, STRESS PERIOD    4
 UBUDSV SAVING "       HORT+DUNN" ON UNIT 52 AT TIME STEP 15, STRESS PERIOD    4
 UBUDSV SAVING "  STORAGE CHANGE" ON UNIT 52 AT TIME STEP 15, STRESS PERIOD    4
 UBDSV4 SAVING "           AG WE" ON UNIT  52 AT TIME STEP 15, STRESS PERIOD   4

 HEAD WILL BE SAVED ON UNIT   51 AT END OF TIME STEP   15, STRESS PERIOD    4
 
 SOLVING FOR HEAD 

    ------------------------------------------------
       NWT REQUIRED            1 OUTER ITERATIONS 
       AND A TOTAL OF          2 INNER ITERATIONS.
    ------------------------------------------------

 OUTPUT CONTROL FOR STRESS PERIOD    4   TIME STEP   16
    SAVE HEAD FOR ALL LAYERS
    SAVE BUDGET
 UBDSV1 SAVING "         STORAGE" ON UNIT  52 AT TIME STEP 16, STRESS PERIOD   4
 UBDSV2 SAVING "   CONSTANT HEAD" ON UNIT  52 AT TIME STEP 16, STRESS PERIOD   4
 UBDSV1 SAVING "FLOW RIGHT FACE " ON UNIT  52 AT TIME STEP 16, STRESS PERIOD   4
 UBDSV1 SAVING "FLOW FRONT FACE " ON UNIT  52 AT TIME STEP 16, STRESS PERIOD   4
 UBDSV4 SAVING "  STREAM LEAKAGE" ON UNIT  52 AT TIME STEP 16, STRESS PERIOD   4



 UBUDSV SAVING "           GW ET" ON UNIT 52 AT TIME STEP 16, STRESS PERIOD    4
 UBUDSV SAVING "    UZF RECHARGE" ON UNIT 52 AT TIME STEP 16, STRESS PERIOD    4
 UBUDSV SAVING " SURFACE LEAKAGE" ON UNIT 52 AT TIME STEP 16, STRESS PERIOD    4
 UBUDSV SAVING "       HORT+DUNN" ON UNIT 52 AT TIME STEP 16, STRESS PERIOD    4
 UBUDSV SAVING "  STORAGE CHANGE" ON UNIT 52 AT TIME STEP 16, STRESS PERIOD    4
 UBDSV4 SAVING "           AG WE" ON UNIT  52 AT TIME STEP 16, STRESS PERIOD   4

 HEAD WILL BE SAVED ON UNIT   51 AT END OF TIME STEP   16, STRESS PERIOD    4
 
 SOLVING FOR HEAD 

    ------------------------------------------------
       NWT REQUIRED            1 OUTER ITERATIONS 
       AND A TOTAL OF          2 INNER ITERATIONS.
    ------------------------------------------------

 OUTPUT CONTROL FOR STRESS PERIOD    4   TIME STEP   17
    SAVE HEAD FOR ALL LAYERS
    SAVE BUDGET
 UBDSV1 SAVING "         STORAGE" ON UNIT  52 AT TIME STEP 17, STRESS PERIOD   4
 UBDSV2 SAVING "   CONSTANT HEAD" ON UNIT  52 AT TIME STEP 17, STRESS PERIOD   4
 UBDSV1 SAVING "FLOW RIGHT FACE " ON UNIT  52 AT TIME STEP 17, STRESS PERIOD   4
 UBDSV1 SAVING "FLOW FRONT FACE " ON UNIT  52 AT TIME STEP 17, STRESS PERIOD   4
 UBDSV4 SAVING "  STREAM LEAKAGE" ON UNIT  52 AT TIME STEP 17, STRESS PERIOD   4



 UBUDSV SAVING "           GW ET" ON UNIT 52 AT TIME STEP 17, STRESS PERIOD    4
 UBUDSV SAVING "    UZF RECHARGE" ON UNIT 52 AT TIME STEP 17, STRESS PERIOD    4
 UBUDSV SAVING " SURFACE LEAKAGE" ON UNIT 52 AT TIME STEP 17, STRESS PERIOD    4
 UBUDSV SAVING "       HORT+DUNN" ON UNIT 52 AT TIME STEP 17, STRESS PERIOD    4
 UBUDSV SAVING "  STORAGE CHANGE" ON UNIT 52 AT TIME STEP 17, STRESS PERIOD    4
 UBDSV4 SAVING "           AG WE" ON UNIT  52 AT TIME STEP 17, STRESS PERIOD   4

 HEAD WILL BE SAVED ON UNIT   51 AT END OF TIME STEP   17, STRESS PERIOD    4
 
 SOLVING FOR HEAD 

    ------------------------------------------------
       NWT REQUIRED            1 OUTER ITERATIONS 
       AND A TOTAL OF          2 INNER ITERATIONS.
    ------------------------------------------------

 OUTPUT CONTROL FOR STRESS PERIOD    4   TIME STEP   18
    SAVE HEAD FOR ALL LAYERS
    SAVE BUDGET
 UBDSV1 SAVING "         STORAGE" ON UNIT  52 AT TIME STEP 18, STRESS PERIOD   4
 UBDSV2 SAVING "   CONSTANT HEAD" ON UNIT  52 AT TIME STEP 18, STRESS PERIOD   4
 UBDSV1 SAVING "FLOW RIGHT FACE " ON UNIT  52 AT TIME STEP 18, STRESS PERIOD   4
 UBDSV1 SAVING "FLOW FRONT FACE " ON UNIT  52 AT TIME STEP 18, STRESS PERIOD   4
 UBDSV4 SAVING "  STREAM LEAKAGE" ON UNIT  52 AT TIME STEP 18, STRESS PERIOD   4



 UBUDSV SAVING "           GW ET" ON UNIT 52 AT TIME STEP 18, STRESS PERIOD    4
 UBUDSV SAVING "    UZF RECHARGE" ON UNIT 52 AT TIME STEP 18, STRESS PERIOD    4
 UBUDSV SAVING " SURFACE LEAKAGE" ON UNIT 52 AT TIME STEP 18, STRESS PERIOD    4
 UBUDSV SAVING "       HORT+DUNN" ON UNIT 52 AT TIME STEP 18, STRESS PERIOD    4
 UBUDSV SAVING "  STORAGE CHANGE" ON UNIT 52 AT TIME STEP 18, STRESS PERIOD    4
 UBDSV4 SAVING "           AG WE" ON UNIT  52 AT TIME STEP 18, STRESS PERIOD   4

 HEAD WILL BE SAVED ON UNIT   51 AT END OF TIME STEP   18, STRESS PERIOD    4
 
 SOLVING FOR HEAD 

    ------------------------------------------------
       NWT REQUIRED            1 OUTER ITERATIONS 
       AND A TOTAL OF          2 INNER ITERATIONS.
    ------------------------------------------------

 OUTPUT CONTROL FOR STRESS PERIOD    4   TIME STEP   19
    SAVE HEAD FOR ALL LAYERS
    SAVE BUDGET
 UBDSV1 SAVING "         STORAGE" ON UNIT  52 AT TIME STEP 19, STRESS PERIOD   4
 UBDSV2 SAVING "   CONSTANT HEAD" ON UNIT  52 AT TIME STEP 19, STRESS PERIOD   4
 UBDSV1 SAVING "FLOW RIGHT FACE " ON UNIT  52 AT TIME STEP 19, STRESS PERIOD   4
 UBDSV1 SAVING "FLOW FRONT FACE " ON UNIT  52 AT TIME STEP 19, STRESS PERIOD   4
 UBDSV4 SAVING "  STREAM LEAKAGE" ON UNIT  52 AT TIME STEP 19, STRESS PERIOD   4



 UBUDSV SAVING "           GW ET" ON UNIT 52 AT TIME STEP 19, STRESS PERIOD    4
 UBUDSV SAVING "    UZF RECHARGE" ON UNIT 52 AT TIME STEP 19, STRESS PERIOD    4
 UBUDSV SAVING " SURFACE LEAKAGE" ON UNIT 52 AT TIME STEP 19, STRESS PERIOD    4
 UBUDSV SAVING "       HORT+DUNN" ON UNIT 52 AT TIME STEP 19, STRESS PERIOD    4
 UBUDSV SAVING "  STORAGE CHANGE" ON UNIT 52 AT TIME STEP 19, STRESS PERIOD    4
 UBDSV4 SAVING "           AG WE" ON UNIT  52 AT TIME STEP 19, STRESS PERIOD   4

 HEAD WILL BE SAVED ON UNIT   51 AT END OF TIME STEP   19, STRESS PERIOD    4
 
 SOLVING FOR HEAD 

    ------------------------------------------------
       NWT REQUIRED            1 OUTER ITERATIONS 
       AND A TOTAL OF          2 INNER ITERATIONS.
    ------------------------------------------------

 OUTPUT CONTROL FOR STRESS PERIOD    4   TIME STEP   20
    SAVE HEAD FOR ALL LAYERS
    SAVE BUDGET
 UBDSV1 SAVING "         STORAGE" ON UNIT  52 AT TIME STEP 20, STRESS PERIOD   4
 UBDSV2 SAVING "   CONSTANT HEAD" ON UNIT  52 AT TIME STEP 20, STRESS PERIOD   4
 UBDSV1 SAVING "FLOW RIGHT FACE " ON UNIT  52 AT TIME STEP 20, STRESS PERIOD   4
 UBDSV1 SAVING "FLOW FRONT FACE " ON UNIT  52 AT TIME STEP 20, STRESS PERIOD   4
 UBDSV4 SAVING "  STREAM LEAKAGE" ON UNIT  52 AT TIME STEP 20, STRESS PERIOD   4



 UBUDSV SAVING "           GW ET" ON UNIT 52 AT TIME STEP 20, STRESS PERIOD    4
 UBUDSV SAVING "    UZF RECHARGE" ON UNIT 52 AT TIME STEP 20, STRESS PERIOD    4
 UBUDSV SAVING " SURFACE LEAKAGE" ON UNIT 52 AT TIME STEP 20, STRESS PERIOD    4
 UBUDSV SAVING "       HORT+DUNN" ON UNIT 52 AT TIME STEP 20, STRESS PERIOD    4
 UBUDSV SAVING "  STORAGE CHANGE" ON UNIT 52 AT TIME STEP 20, STRESS PERIOD    4
 UBDSV4 SAVING "           AG WE" ON UNIT  52 AT TIME STEP 20, STRESS PERIOD   4

 HEAD WILL BE SAVED ON UNIT   51 AT END OF TIME STEP   20, STRESS PERIOD    4
 
 SOLVING FOR HEAD 

    ------------------------------------------------
       NWT REQUIRED            1 OUTER ITERATIONS 
       AND A TOTAL OF          2 INNER ITERATIONS.
    ------------------------------------------------

 OUTPUT CONTROL FOR STRESS PERIOD    4   TIME STEP   21
    SAVE HEAD FOR ALL LAYERS
    SAVE BUDGET
 UBDSV1 SAVING "         STORAGE" ON UNIT  52 AT TIME STEP 21, STRESS PERIOD   4
 UBDSV2 SAVING "   CONSTANT HEAD" ON UNIT  52 AT TIME STEP 21, STRESS PERIOD   4
 UBDSV1 SAVING "FLOW RIGHT FACE " ON UNIT  52 AT TIME STEP 21, STRESS PERIOD   4
 UBDSV1 SAVING "FLOW FRONT FACE " ON UNIT  52 AT TIME STEP 21, STRESS PERIOD   4
 UBDSV4 SAVING "  STREAM LEAKAGE" ON UNIT  52 AT TIME STEP 21, STRESS PERIOD   4



 UBUDSV SAVING "           GW ET" ON UNIT 52 AT TIME STEP 21, STRESS PERIOD    4
 UBUDSV SAVING "    UZF RECHARGE" ON UNIT 52 AT TIME STEP 21, STRESS PERIOD    4
 UBUDSV SAVING " SURFACE LEAKAGE" ON UNIT 52 AT TIME STEP 21, STRESS PERIOD    4
 UBUDSV SAVING "       HORT+DUNN" ON UNIT 52 AT TIME STEP 21, STRESS PERIOD    4
 UBUDSV SAVING "  STORAGE CHANGE" ON UNIT 52 AT TIME STEP 21, STRESS PERIOD    4
 UBDSV4 SAVING "           AG WE" ON UNIT  52 AT TIME STEP 21, STRESS PERIOD   4

 HEAD WILL BE SAVED ON UNIT   51 AT END OF TIME STEP   21, STRESS PERIOD    4
 
 SOLVING FOR HEAD 

    ------------------------------------------------
       NWT REQUIRED            1 OUTER ITERATIONS 
       AND A TOTAL OF          2 INNER ITERATIONS.
    ------------------------------------------------

 OUTPUT CONTROL FOR STRESS PERIOD    4   TIME STEP   22
    SAVE HEAD FOR ALL LAYERS
    SAVE BUDGET
 UBDSV1 SAVING "         STORAGE" ON UNIT  52 AT TIME STEP 22, STRESS PERIOD   4
 UBDSV2 SAVING "   CONSTANT HEAD" ON UNIT  52 AT TIME STEP 22, STRESS PERIOD   4
 UBDSV1 SAVING "FLOW RIGHT FACE " ON UNIT  52 AT TIME STEP 22, STRESS PERIOD   4
 UBDSV1 SAVING "FLOW FRONT FACE " ON UNIT  52 AT TIME STEP 22, STRESS PERIOD   4
 UBDSV4 SAVING "  STREAM LEAKAGE" ON UNIT  52 AT TIME STEP 22, STRESS PERIOD   4



 UBUDSV SAVING "           GW ET" ON UNIT 52 AT TIME STEP 22, STRESS PERIOD    4
 UBUDSV SAVING "    UZF RECHARGE" ON UNIT 52 AT TIME STEP 22, STRESS PERIOD    4
 UBUDSV SAVING " SURFACE LEAKAGE" ON UNIT 52 AT TIME STEP 22, STRESS PERIOD    4
 UBUDSV SAVING "       HORT+DUNN" ON UNIT 52 AT TIME STEP 22, STRESS PERIOD    4
 UBUDSV SAVING "  STORAGE CHANGE" ON UNIT 52 AT TIME STEP 22, STRESS PERIOD    4
 UBDSV4 SAVING "           AG WE" ON UNIT  52 AT TIME STEP 22, STRESS PERIOD   4

 HEAD WILL BE SAVED ON UNIT   51 AT END OF TIME STEP   22, STRESS PERIOD    4
 
 SOLVING FOR HEAD 

    ------------------------------------------------
       NWT REQUIRED            1 OUTER ITERATIONS 
       AND A TOTAL OF          2 INNER ITERATIONS.
    ------------------------------------------------

 OUTPUT CONTROL FOR STRESS PERIOD    4   TIME STEP   23
    SAVE HEAD FOR ALL LAYERS
    SAVE BUDGET
 UBDSV1 SAVING "         STORAGE" ON UNIT  52 AT TIME STEP 23, STRESS PERIOD   4
 UBDSV2 SAVING "   CONSTANT HEAD" ON UNIT  52 AT TIME STEP 23, STRESS PERIOD   4
 UBDSV1 SAVING "FLOW RIGHT FACE " ON UNIT  52 AT TIME STEP 23, STRESS PERIOD   4
 UBDSV1 SAVING "FLOW FRONT FACE " ON UNIT  52 AT TIME STEP 23, STRESS PERIOD   4
 UBDSV4 SAVING "  STREAM LEAKAGE" ON UNIT  52 AT TIME STEP 23, STRESS PERIOD   4



 UBUDSV SAVING "           GW ET" ON UNIT 52 AT TIME STEP 23, STRESS PERIOD    4
 UBUDSV SAVING "    UZF RECHARGE" ON UNIT 52 AT TIME STEP 23, STRESS PERIOD    4
 UBUDSV SAVING " SURFACE LEAKAGE" ON UNIT 52 AT TIME STEP 23, STRESS PERIOD    4
 UBUDSV SAVING "       HORT+DUNN" ON UNIT 52 AT TIME STEP 23, STRESS PERIOD    4
 UBUDSV SAVING "  STORAGE CHANGE" ON UNIT 52 AT TIME STEP 23, STRESS PERIOD    4
 UBDSV4 SAVING "           AG WE" ON UNIT  52 AT TIME STEP 23, STRESS PERIOD   4

 HEAD WILL BE SAVED ON UNIT   51 AT END OF TIME STEP   23, STRESS PERIOD    4
 
 SOLVING FOR HEAD 

    ------------------------------------------------
       NWT REQUIRED            1 OUTER ITERATIONS 
       AND A TOTAL OF          2 INNER ITERATIONS.
    ------------------------------------------------

 OUTPUT CONTROL FOR STRESS PERIOD    4   TIME STEP   24
    SAVE HEAD FOR ALL LAYERS
    SAVE BUDGET
 UBDSV1 SAVING "         STORAGE" ON UNIT  52 AT TIME STEP 24, STRESS PERIOD   4
 UBDSV2 SAVING "   CONSTANT HEAD" ON UNIT  52 AT TIME STEP 24, STRESS PERIOD   4
 UBDSV1 SAVING "FLOW RIGHT FACE " ON UNIT  52 AT TIME STEP 24, STRESS PERIOD   4
 UBDSV1 SAVING "FLOW FRONT FACE " ON UNIT  52 AT TIME STEP 24, STRESS PERIOD   4
 UBDSV4 SAVING "  STREAM LEAKAGE" ON UNIT  52 AT TIME STEP 24, STRESS PERIOD   4



 UBUDSV SAVING "           GW ET" ON UNIT 52 AT TIME STEP 24, STRESS PERIOD    4
 UBUDSV SAVING "    UZF RECHARGE" ON UNIT 52 AT TIME STEP 24, STRESS PERIOD    4
 UBUDSV SAVING " SURFACE LEAKAGE" ON UNIT 52 AT TIME STEP 24, STRESS PERIOD    4
 UBUDSV SAVING "       HORT+DUNN" ON UNIT 52 AT TIME STEP 24, STRESS PERIOD    4
 UBUDSV SAVING "  STORAGE CHANGE" ON UNIT 52 AT TIME STEP 24, STRESS PERIOD    4
 UBDSV4 SAVING "           AG WE" ON UNIT  52 AT TIME STEP 24, STRESS PERIOD   4

 HEAD WILL BE SAVED ON UNIT   51 AT END OF TIME STEP   24, STRESS PERIOD    4
 
 SOLVING FOR HEAD 

    ------------------------------------------------
       NWT REQUIRED            1 OUTER ITERATIONS 
       AND A TOTAL OF          2 INNER ITERATIONS.
    ------------------------------------------------

 OUTPUT CONTROL FOR STRESS PERIOD    4   TIME STEP   25
    SAVE HEAD FOR ALL LAYERS
    SAVE BUDGET
 UBDSV1 SAVING "         STORAGE" ON UNIT  52 AT TIME STEP 25, STRESS PERIOD   4
 UBDSV2 SAVING "   CONSTANT HEAD" ON UNIT  52 AT TIME STEP 25, STRESS PERIOD   4
 UBDSV1 SAVING "FLOW RIGHT FACE " ON UNIT  52 AT TIME STEP 25, STRESS PERIOD   4
 UBDSV1 SAVING "FLOW FRONT FACE " ON UNIT  52 AT TIME STEP 25, STRESS PERIOD   4
 UBDSV4 SAVING "  STREAM LEAKAGE" ON UNIT  52 AT TIME STEP 25, STRESS PERIOD   4



 UBUDSV SAVING "           GW ET" ON UNIT 52 AT TIME STEP 25, STRESS PERIOD    4
 UBUDSV SAVING "    UZF RECHARGE" ON UNIT 52 AT TIME STEP 25, STRESS PERIOD    4
 UBUDSV SAVING " SURFACE LEAKAGE" ON UNIT 52 AT TIME STEP 25, STRESS PERIOD    4
 UBUDSV SAVING "       HORT+DUNN" ON UNIT 52 AT TIME STEP 25, STRESS PERIOD    4
 UBUDSV SAVING "  STORAGE CHANGE" ON UNIT 52 AT TIME STEP 25, STRESS PERIOD    4
 UBDSV4 SAVING "           AG WE" ON UNIT  52 AT TIME STEP 25, STRESS PERIOD   4

 HEAD WILL BE SAVED ON UNIT   51 AT END OF TIME STEP   25, STRESS PERIOD    4
 
 SOLVING FOR HEAD 

    ------------------------------------------------
       NWT REQUIRED            1 OUTER ITERATIONS 
       AND A TOTAL OF          2 INNER ITERATIONS.
    ------------------------------------------------

 OUTPUT CONTROL FOR STRESS PERIOD    4   TIME STEP   26
    SAVE HEAD FOR ALL LAYERS
    SAVE BUDGET
 UBDSV1 SAVING "         STORAGE" ON UNIT  52 AT TIME STEP 26, STRESS PERIOD   4
 UBDSV2 SAVING "   CONSTANT HEAD" ON UNIT  52 AT TIME STEP 26, STRESS PERIOD   4
 UBDSV1 SAVING "FLOW RIGHT FACE " ON UNIT  52 AT TIME STEP 26, STRESS PERIOD   4
 UBDSV1 SAVING "FLOW FRONT FACE " ON UNIT  52 AT TIME STEP 26, STRESS PERIOD   4
 UBDSV4 SAVING "  STREAM LEAKAGE" ON UNIT  52 AT TIME STEP 26, STRESS PERIOD   4



 UBUDSV SAVING "           GW ET" ON UNIT 52 AT TIME STEP 26, STRESS PERIOD    4
 UBUDSV SAVING "    UZF RECHARGE" ON UNIT 52 AT TIME STEP 26, STRESS PERIOD    4
 UBUDSV SAVING " SURFACE LEAKAGE" ON UNIT 52 AT TIME STEP 26, STRESS PERIOD    4
 UBUDSV SAVING "       HORT+DUNN" ON UNIT 52 AT TIME STEP 26, STRESS PERIOD    4
 UBUDSV SAVING "  STORAGE CHANGE" ON UNIT 52 AT TIME STEP 26, STRESS PERIOD    4
 UBDSV4 SAVING "           AG WE" ON UNIT  52 AT TIME STEP 26, STRESS PERIOD   4

 HEAD WILL BE SAVED ON UNIT   51 AT END OF TIME STEP   26, STRESS PERIOD    4
 
 SOLVING FOR HEAD 

    ------------------------------------------------
       NWT REQUIRED            1 OUTER ITERATIONS 
       AND A TOTAL OF          2 INNER ITERATIONS.
    ------------------------------------------------

 OUTPUT CONTROL FOR STRESS PERIOD    4   TIME STEP   27
    SAVE HEAD FOR ALL LAYERS
    SAVE BUDGET
 UBDSV1 SAVING "         STORAGE" ON UNIT  52 AT TIME STEP 27, STRESS PERIOD   4
 UBDSV2 SAVING "   CONSTANT HEAD" ON UNIT  52 AT TIME STEP 27, STRESS PERIOD   4
 UBDSV1 SAVING "FLOW RIGHT FACE " ON UNIT  52 AT TIME STEP 27, STRESS PERIOD   4
 UBDSV1 SAVING "FLOW FRONT FACE " ON UNIT  52 AT TIME STEP 27, STRESS PERIOD   4
 UBDSV4 SAVING "  STREAM LEAKAGE" ON UNIT  52 AT TIME STEP 27, STRESS PERIOD   4



 UBUDSV SAVING "           GW ET" ON UNIT 52 AT TIME STEP 27, STRESS PERIOD    4
 UBUDSV SAVING "    UZF RECHARGE" ON UNIT 52 AT TIME STEP 27, STRESS PERIOD    4
 UBUDSV SAVING " SURFACE LEAKAGE" ON UNIT 52 AT TIME STEP 27, STRESS PERIOD    4
 UBUDSV SAVING "       HORT+DUNN" ON UNIT 52 AT TIME STEP 27, STRESS PERIOD    4
 UBUDSV SAVING "  STORAGE CHANGE" ON UNIT 52 AT TIME STEP 27, STRESS PERIOD    4
 UBDSV4 SAVING "           AG WE" ON UNIT  52 AT TIME STEP 27, STRESS PERIOD   4

 HEAD WILL BE SAVED ON UNIT   51 AT END OF TIME STEP   27, STRESS PERIOD    4
 
 SOLVING FOR HEAD 

    ------------------------------------------------
       NWT REQUIRED            1 OUTER ITERATIONS 
       AND A TOTAL OF          2 INNER ITERATIONS.
    ------------------------------------------------

 OUTPUT CONTROL FOR STRESS PERIOD    4   TIME STEP   28
    SAVE HEAD FOR ALL LAYERS
    SAVE BUDGET
 UBDSV1 SAVING "         STORAGE" ON UNIT  52 AT TIME STEP 28, STRESS PERIOD   4
 UBDSV2 SAVING "   CONSTANT HEAD" ON UNIT  52 AT TIME STEP 28, STRESS PERIOD   4
 UBDSV1 SAVING "FLOW RIGHT FACE " ON UNIT  52 AT TIME STEP 28, STRESS PERIOD   4
 UBDSV1 SAVING "FLOW FRONT FACE " ON UNIT  52 AT TIME STEP 28, STRESS PERIOD   4
 UBDSV4 SAVING "  STREAM LEAKAGE" ON UNIT  52 AT TIME STEP 28, STRESS PERIOD   4



 UBUDSV SAVING "           GW ET" ON UNIT 52 AT TIME STEP 28, STRESS PERIOD    4
 UBUDSV SAVING "    UZF RECHARGE" ON UNIT 52 AT TIME STEP 28, STRESS PERIOD    4
 UBUDSV SAVING " SURFACE LEAKAGE" ON UNIT 52 AT TIME STEP 28, STRESS PERIOD    4
 UBUDSV SAVING "       HORT+DUNN" ON UNIT 52 AT TIME STEP 28, STRESS PERIOD    4
 UBUDSV SAVING "  STORAGE CHANGE" ON UNIT 52 AT TIME STEP 28, STRESS PERIOD    4
 UBDSV4 SAVING "           AG WE" ON UNIT  52 AT TIME STEP 28, STRESS PERIOD   4

 HEAD WILL BE SAVED ON UNIT   51 AT END OF TIME STEP   28, STRESS PERIOD    4
 
 SOLVING FOR HEAD 

    ------------------------------------------------
       NWT REQUIRED            1 OUTER ITERATIONS 
       AND A TOTAL OF          2 INNER ITERATIONS.
    ------------------------------------------------

 OUTPUT CONTROL FOR STRESS PERIOD    4   TIME STEP   29
    SAVE HEAD FOR ALL LAYERS
    SAVE BUDGET
 UBDSV1 SAVING "         STORAGE" ON UNIT  52 AT TIME STEP 29, STRESS PERIOD   4
 UBDSV2 SAVING "   CONSTANT HEAD" ON UNIT  52 AT TIME STEP 29, STRESS PERIOD   4
 UBDSV1 SAVING "FLOW RIGHT FACE " ON UNIT  52 AT TIME STEP 29, STRESS PERIOD   4
 UBDSV1 SAVING "FLOW FRONT FACE " ON UNIT  52 AT TIME STEP 29, STRESS PERIOD   4
 UBDSV4 SAVING "  STREAM LEAKAGE" ON UNIT  52 AT TIME STEP 29, STRESS PERIOD   4



 UBUDSV SAVING "           GW ET" ON UNIT 52 AT TIME STEP 29, STRESS PERIOD    4
 UBUDSV SAVING "    UZF RECHARGE" ON UNIT 52 AT TIME STEP 29, STRESS PERIOD    4
 UBUDSV SAVING " SURFACE LEAKAGE" ON UNIT 52 AT TIME STEP 29, STRESS PERIOD    4
 UBUDSV SAVING "       HORT+DUNN" ON UNIT 52 AT TIME STEP 29, STRESS PERIOD    4
 UBUDSV SAVING "  STORAGE CHANGE" ON UNIT 52 AT TIME STEP 29, STRESS PERIOD    4
 UBDSV4 SAVING "           AG WE" ON UNIT  52 AT TIME STEP 29, STRESS PERIOD   4

 HEAD WILL BE SAVED ON UNIT   51 AT END OF TIME STEP   29, STRESS PERIOD    4
 
 SOLVING FOR HEAD 

    ------------------------------------------------
       NWT REQUIRED            1 OUTER ITERATIONS 
       AND A TOTAL OF          2 INNER ITERATIONS.
    ------------------------------------------------

 OUTPUT CONTROL FOR STRESS PERIOD    4   TIME STEP   30
    SAVE HEAD FOR ALL LAYERS
    SAVE BUDGET
 UBDSV1 SAVING "         STORAGE" ON UNIT  52 AT TIME STEP 30, STRESS PERIOD   4
 UBDSV2 SAVING "   CONSTANT HEAD" ON UNIT  52 AT TIME STEP 30, STRESS PERIOD   4
 UBDSV1 SAVING "FLOW RIGHT FACE " ON UNIT  52 AT TIME STEP 30, STRESS PERIOD   4
 UBDSV1 SAVING "FLOW FRONT FACE " ON UNIT  52 AT TIME STEP 30, STRESS PERIOD   4
 UBDSV4 SAVING "  STREAM LEAKAGE" ON UNIT  52 AT TIME STEP 30, STRESS PERIOD   4



 UBUDSV SAVING "           GW ET" ON UNIT 52 AT TIME STEP 30, STRESS PERIOD    4
 UBUDSV SAVING "    UZF RECHARGE" ON UNIT 52 AT TIME STEP 30, STRESS PERIOD    4
 UBUDSV SAVING " SURFACE LEAKAGE" ON UNIT 52 AT TIME STEP 30, STRESS PERIOD    4
 UBUDSV SAVING "       HORT+DUNN" ON UNIT 52 AT TIME STEP 30, STRESS PERIOD    4
 UBUDSV SAVING "  STORAGE CHANGE" ON UNIT 52 AT TIME STEP 30, STRESS PERIOD    4


UNSATURATED ZONE PACKAGE VOLUMETRIC BUDGET FOR  TIME STEP    30 STRESS PERIOD    4
  ------------------------------------------------------------------------------



     CUMULATIVE VOLUMES      L**3       RATES FOR THIS TIME STEP      L**3/T
     ------------------                 ------------------------

           IN:                                      IN:
           ---                                      ---
        INFILTRATION =      109786.0051          INFILTRATION =         379.3538

          OUT:                                     OUT:
          ----                                     ----
              UZF ET =      122466.5551                UZF ET =        1221.2381
        UZF RECHARGE =        6307.1883          UZF RECHARGE =         106.2849

            IN - OUT =      -18987.7383              IN - OUT =        -948.1693

          STORAGE:                                 STORAGE:
          --------                                 --------
      STORAGE CHANGE =      -18987.9515        STORAGE CHANGE =        -948.1693

 PERCENT DISCREPANCY IS DIFFERENCE BETWEEN IN-OUT MINUS CHANGE IN STORAGE
 DIVIDED BY THE AVERAGE OF IN AND OUT TIMES 100

 PERCENT DISCREPANCY =           0.00     PERCENT DISCREPANCY =           0.00






 UBDSV4 SAVING "           AG WE" ON UNIT  52 AT TIME STEP 30, STRESS PERIOD   4
1
  VOLUMETRIC BUDGET FOR AGRICULTURAL FIELDS AT TIME STEP   30, STRESS PERIOD   4
  ------------------------------------------------------------------------------

     CUMULATIVE VOLUMES      L**3       RATES FOR THIS TIME STEP      L**3/T
     ------------------                 ------------------------

           IN:                                      IN:
           ---                                      ---
               AG WELLS  =           8.3326                 AG WELLS  =           2.9769
      DIVERSION SEGMENTS =         189.4805        DIVERSION SEGMENTS =          22.9769
           GW IRRIGATION =           0.0000             GW IRRIGATION =           0.0000
           SW IRRIGATION =           0.0000             SW IRRIGATION =           0.0000
        SYSTEM LOSSES GW =           0.0000          SYSTEM LOSSES GW =           0.0000
        SYSTEM LOSSES SW =           0.0000          SYSTEM LOSSES SW =           0.0000

                TOTAL IN =         197.8131                  TOTAL IN =          25.9537

          OUT:                                     OUT:
          ----                                     ----
               AG WELLS  =           0.0000                 AG WELLS  =           0.0000
      DIVERSION SEGMENTS =           0.0000        DIVERSION SEGMENTS =           0.0000
           GW IRRIGATION =           8.3326             GW IRRIGATION =           2.9769
           SW IRRIGATION =         189.4805             SW IRRIGATION =          22.9769
        SYSTEM LOSSES GW =           0.0000          SYSTEM LOSSES GW =           0.0000
        SYSTEM LOSSES SW =           0.0000          SYSTEM LOSSES SW =           0.0000

               TOTAL OUT =         197.8131                 TOTAL OUT =          25.9537

                IN - OUT =           0.0000                  IN - OUT =           0.0000

     PERCENT DISCREPANCY =           0.00         PERCENT DISCREPANCY =           0.00




 HEAD WILL BE SAVED ON UNIT   51 AT END OF TIME STEP   30, STRESS PERIOD    4
1
  VOLUMETRIC BUDGET FOR ENTIRE MODEL AT END OF TIME STEP   30, STRESS PERIOD   4
  ------------------------------------------------------------------------------

     CUMULATIVE VOLUMES      L**3       RATES FOR THIS TIME STEP      L**3/T
     ------------------                 ------------------------

           IN:                                      IN:
           ---                                      ---
             STORAGE     =           0.3598               STORAGE     =           0.2072
       CONSTANT HEAD     =           0.0000         CONSTANT HEAD     =           0.0000
      STREAM LEAKAGE     =           9.1228        STREAM LEAKAGE     =       7.6023E-02
        UZF RECHARGE     =        6307.1885          UZF RECHARGE     =         106.2849
               GW ET     =           0.0000                 GW ET     =           0.0000
     SURFACE LEAKAGE     =           0.0000       SURFACE LEAKAGE     =           0.0000
           AG WELLS      =           0.0000             AG WELLS      =           0.0000

                TOTAL IN =        6316.6709                  TOTAL IN =         106.5682

          OUT:                                     OUT:
          ----                                     ----
             STORAGE     =        5607.4404               STORAGE     =          90.4176
       CONSTANT HEAD     =           0.0000         CONSTANT HEAD     =           0.0000
      STREAM LEAKAGE     =           0.0000        STREAM LEAKAGE     =           0.0000
        UZF RECHARGE     =           0.0000          UZF RECHARGE     =           0.0000
               GW ET     =           0.0000                 GW ET     =           0.0000
     SURFACE LEAKAGE     =           0.0000       SURFACE LEAKAGE     =           0.0000
           AG WELLS      =           8.3326             AG WELLS      =           2.9769

               TOTAL OUT =        5615.7729                 TOTAL OUT =          93.3945

                IN - OUT =         700.8979                  IN - OUT =          13.1737

     PERCENT DISCREPANCY =          11.75         PERCENT DISCREPANCY =          13.18






         TIME SUMMARY AT END OF TIME STEP   30 IN STRESS PERIOD    4
                    SECONDS     MINUTES      HOURS       DAYS        YEARS
                    -----------------------------------------------------------
   TIME STEP LENGTH  86400.      1440.0      24.000      1.0000     2.73785E-03
 STRESS PERIOD TIME 2.59200E+06  43200.      720.00      30.000     8.21355E-02
         TOTAL TIME 1.03680E+07 1.72800E+05  2880.0      120.00     0.32854    
1
1
                            STRESS PERIOD NO.    5, LENGTH =   31.00000    
                            -----------------------------------------------

                              NUMBER OF TIME STEPS =    31

                               MULTIPLIER FOR DELT =     1.000

                            INITIAL TIME STEP SIZE =   1.000000    



 CLASSIFICATION & COUNT OF STREAM SEGMENTS BASED ON SOURCE OF INFLOW:

                HEADWATER     DIVERSION     RECEIVES TRIBUTARY FLOW
                ---------     ---------     -----------------------
                     1              2               9



                    INPUT DATA FOR EACH STREAM SEGMENT
 ---------------------------------------------------------------------------------------------

 SEGMENT    SEG.     INFLOW   OVERLAND   STREAM    STREAM   ICALC  OUTFLOW  DIVERSION PRIORITY
    NO.    LENGTH     RATE     RUNOFF      ET       PPT.    METH.  TO SEG.  FROM SEG.    NO.

      1  1.000E+02 5.000E+01 0.000E+00 0.000E+00 0.000E+00    1        2        0        0
      2  1.000E+02 0.000E+00 0.000E+00 0.000E+00 0.000E+00    1        3        0        0
      3  1.000E+02 0.000E+00 0.000E+00 0.000E+00 0.000E+00    1        4        0        0
      4  1.000E+02 0.000E+00 0.000E+00 0.000E+00 0.000E+00    1        5        0        0
      5  1.000E+02 0.000E+00 0.000E+00 0.000E+00 0.000E+00    1        6        0        0
      6  1.000E+02 0.000E+00 0.000E+00 0.000E+00 0.000E+00    1        7        0        0
      7  1.000E+02 0.000E+00 0.000E+00 0.000E+00 0.000E+00    1        8        0        0
      8  1.000E+02 0.000E+00 0.000E+00 0.000E+00 0.000E+00    1        9        0        0
      9  1.000E+02 0.000E+00 0.000E+00 0.000E+00 0.000E+00    1       10        0        0
     10  1.000E+02 0.000E+00 0.000E+00 0.000E+00 0.000E+00    1        0        0        0
     11  1.000E+02 2.000E+01 0.000E+00 0.000E+00 0.000E+00    1        0        3        0
     12  1.000E+02 1.000E+01 0.000E+00 0.000E+00 0.000E+00    1        0        5        0


         STREAMBED PROPERTIES AND STREAM DIMENSIONS

 SEGMENT     BED HYD. COND.      BED THICKNESS     ELEV.-TOP OF BED     WIDTH OF STREAM     DEPTH OF STREAM    STREAM ROUGHNESS
    No.     UPPER     LOWER     UPPER     LOWER     UPPER     LOWER     UPPER     LOWER     UPPER     LOWER   CHANNEL      BANK

     1  1.500E-05 1.500E-05 5.000E-01 5.000E-01 9.900E+01 9.898E+01 5.000E+00 5.000E+00                     3.000E-02
     2  1.500E-05 1.500E-05 5.000E-01 5.000E-01 9.898E+01 9.896E+01 5.000E+00 5.000E+00                     3.000E-02
     3  1.500E-05 1.500E-05 5.000E-01 5.000E-01 9.896E+01 9.894E+01 5.000E+00 5.000E+00                     3.000E-02
     4  1.500E-05 1.500E-05 5.000E-01 5.000E-01 9.894E+01 9.892E+01 5.000E+00 5.000E+00                     3.000E-02
     5  1.500E-05 1.500E-05 5.000E-01 5.000E-01 9.892E+01 9.890E+01 5.000E+00 5.000E+00                     3.000E-02
     6  1.500E-05 1.500E-05 5.000E-01 5.000E-01 9.890E+01 9.888E+01 5.000E+00 5.000E+00                     3.000E-02
     7  1.500E-05 1.500E-05 5.000E-01 5.000E-01 9.888E+01 9.886E+01 5.000E+00 5.000E+00                     3.000E-02
     8  1.500E-05 1.500E-05 5.000E-01 5.000E-01 9.886E+01 9.884E+01 5.000E+00 5.000E+00                     3.000E-02
     9  1.500E-05 1.500E-05 5.000E-01 5.000E-01 9.884E+01 9.882E+01 5.000E+00 5.000E+00                     3.000E-02
    10  1.500E-05 1.500E-05 5.000E-01 5.000E-01 9.882E+01 9.880E+01 5.000E+00 5.000E+00                     3.000E-02
    11  1.500E-05 1.500E-05 5.000E-01 5.000E-01 9.894E+01 9.892E+01 5.000E+00 5.000E+00                     3.000E-02
    12  1.500E-05 1.500E-05 5.000E-01 5.000E-01 9.890E+01 9.888E+01 5.000E+00 5.000E+00                     3.000E-02






            AREAL INFILTRATION RATE
 READING ON UNIT   19 WITH FORMAT: (10E15.6)           



                            ET RATE
 READING ON UNIT   19 WITH FORMAT: (10E15.6)           



                ET EXTINCTION DEPTH
 READING ON UNIT   19 WITH FORMAT: (10E15.6)           



           EXTINCTION WATER CONTENT
 READING ON UNIT   19 WITH FORMAT: (10E15.6)           

 PROCESSING AG STRESS PERIOD DATA

 READING AG STRESS PERIOD DATA

 READING IRRIGATION SEGMENT

 READING IRRIGATION WELL

 READING SUPPLEMENTAL WELL

 END PROCESSING AG STRESS PERIOD DATA OPTIONS
 
 SOLVING FOR HEAD 

    ------------------------------------------------
       NWT REQUIRED            1 OUTER ITERATIONS 
       AND A TOTAL OF          2 INNER ITERATIONS.
    ------------------------------------------------

 OUTPUT CONTROL FOR STRESS PERIOD    5   TIME STEP    1
    SAVE HEAD FOR ALL LAYERS
    SAVE BUDGET
 UBDSV1 SAVING "         STORAGE" ON UNIT  52 AT TIME STEP  1, STRESS PERIOD   5
 UBDSV2 SAVING "   CONSTANT HEAD" ON UNIT  52 AT TIME STEP  1, STRESS PERIOD   5
 UBDSV1 SAVING "FLOW RIGHT FACE " ON UNIT  52 AT TIME STEP  1, STRESS PERIOD   5
 UBDSV1 SAVING "FLOW FRONT FACE " ON UNIT  52 AT TIME STEP  1, STRESS PERIOD   5
 UBDSV4 SAVING "  STREAM LEAKAGE" ON UNIT  52 AT TIME STEP  1, STRESS PERIOD   5



 UBUDSV SAVING "           GW ET" ON UNIT 52 AT TIME STEP  1, STRESS PERIOD    5
 UBUDSV SAVING "    UZF RECHARGE" ON UNIT 52 AT TIME STEP  1, STRESS PERIOD    5
 UBUDSV SAVING " SURFACE LEAKAGE" ON UNIT 52 AT TIME STEP  1, STRESS PERIOD    5
 UBUDSV SAVING "       HORT+DUNN" ON UNIT 52 AT TIME STEP  1, STRESS PERIOD    5
 UBUDSV SAVING "  STORAGE CHANGE" ON UNIT 52 AT TIME STEP  1, STRESS PERIOD    5
 UBDSV4 SAVING "           AG WE" ON UNIT  52 AT TIME STEP  1, STRESS PERIOD   5

 HEAD WILL BE SAVED ON UNIT   51 AT END OF TIME STEP    1, STRESS PERIOD    5
 
 SOLVING FOR HEAD 

    ------------------------------------------------
       NWT REQUIRED            1 OUTER ITERATIONS 
       AND A TOTAL OF          2 INNER ITERATIONS.
    ------------------------------------------------

 OUTPUT CONTROL FOR STRESS PERIOD    5   TIME STEP    2
    SAVE HEAD FOR ALL LAYERS
    SAVE BUDGET
 UBDSV1 SAVING "         STORAGE" ON UNIT  52 AT TIME STEP  2, STRESS PERIOD   5
 UBDSV2 SAVING "   CONSTANT HEAD" ON UNIT  52 AT TIME STEP  2, STRESS PERIOD   5
 UBDSV1 SAVING "FLOW RIGHT FACE " ON UNIT  52 AT TIME STEP  2, STRESS PERIOD   5
 UBDSV1 SAVING "FLOW FRONT FACE " ON UNIT  52 AT TIME STEP  2, STRESS PERIOD   5
 UBDSV4 SAVING "  STREAM LEAKAGE" ON UNIT  52 AT TIME STEP  2, STRESS PERIOD   5



 UBUDSV SAVING "           GW ET" ON UNIT 52 AT TIME STEP  2, STRESS PERIOD    5
 UBUDSV SAVING "    UZF RECHARGE" ON UNIT 52 AT TIME STEP  2, STRESS PERIOD    5
 UBUDSV SAVING " SURFACE LEAKAGE" ON UNIT 52 AT TIME STEP  2, STRESS PERIOD    5
 UBUDSV SAVING "       HORT+DUNN" ON UNIT 52 AT TIME STEP  2, STRESS PERIOD    5
 UBUDSV SAVING "  STORAGE CHANGE" ON UNIT 52 AT TIME STEP  2, STRESS PERIOD    5
 UBDSV4 SAVING "           AG WE" ON UNIT  52 AT TIME STEP  2, STRESS PERIOD   5

 HEAD WILL BE SAVED ON UNIT   51 AT END OF TIME STEP    2, STRESS PERIOD    5
 
 SOLVING FOR HEAD 

    ------------------------------------------------
       NWT REQUIRED            1 OUTER ITERATIONS 
       AND A TOTAL OF          2 INNER ITERATIONS.
    ------------------------------------------------

 OUTPUT CONTROL FOR STRESS PERIOD    5   TIME STEP    3
    SAVE HEAD FOR ALL LAYERS
    SAVE BUDGET
 UBDSV1 SAVING "         STORAGE" ON UNIT  52 AT TIME STEP  3, STRESS PERIOD   5
 UBDSV2 SAVING "   CONSTANT HEAD" ON UNIT  52 AT TIME STEP  3, STRESS PERIOD   5
 UBDSV1 SAVING "FLOW RIGHT FACE " ON UNIT  52 AT TIME STEP  3, STRESS PERIOD   5
 UBDSV1 SAVING "FLOW FRONT FACE " ON UNIT  52 AT TIME STEP  3, STRESS PERIOD   5
 UBDSV4 SAVING "  STREAM LEAKAGE" ON UNIT  52 AT TIME STEP  3, STRESS PERIOD   5



 UBUDSV SAVING "           GW ET" ON UNIT 52 AT TIME STEP  3, STRESS PERIOD    5
 UBUDSV SAVING "    UZF RECHARGE" ON UNIT 52 AT TIME STEP  3, STRESS PERIOD    5
 UBUDSV SAVING " SURFACE LEAKAGE" ON UNIT 52 AT TIME STEP  3, STRESS PERIOD    5
 UBUDSV SAVING "       HORT+DUNN" ON UNIT 52 AT TIME STEP  3, STRESS PERIOD    5
 UBUDSV SAVING "  STORAGE CHANGE" ON UNIT 52 AT TIME STEP  3, STRESS PERIOD    5
 UBDSV4 SAVING "           AG WE" ON UNIT  52 AT TIME STEP  3, STRESS PERIOD   5

 HEAD WILL BE SAVED ON UNIT   51 AT END OF TIME STEP    3, STRESS PERIOD    5
 
 SOLVING FOR HEAD 

    ------------------------------------------------
       NWT REQUIRED            1 OUTER ITERATIONS 
       AND A TOTAL OF          2 INNER ITERATIONS.
    ------------------------------------------------

 OUTPUT CONTROL FOR STRESS PERIOD    5   TIME STEP    4
    SAVE HEAD FOR ALL LAYERS
    SAVE BUDGET
 UBDSV1 SAVING "         STORAGE" ON UNIT  52 AT TIME STEP  4, STRESS PERIOD   5
 UBDSV2 SAVING "   CONSTANT HEAD" ON UNIT  52 AT TIME STEP  4, STRESS PERIOD   5
 UBDSV1 SAVING "FLOW RIGHT FACE " ON UNIT  52 AT TIME STEP  4, STRESS PERIOD   5
 UBDSV1 SAVING "FLOW FRONT FACE " ON UNIT  52 AT TIME STEP  4, STRESS PERIOD   5
 UBDSV4 SAVING "  STREAM LEAKAGE" ON UNIT  52 AT TIME STEP  4, STRESS PERIOD   5



 UBUDSV SAVING "           GW ET" ON UNIT 52 AT TIME STEP  4, STRESS PERIOD    5
 UBUDSV SAVING "    UZF RECHARGE" ON UNIT 52 AT TIME STEP  4, STRESS PERIOD    5
 UBUDSV SAVING " SURFACE LEAKAGE" ON UNIT 52 AT TIME STEP  4, STRESS PERIOD    5
 UBUDSV SAVING "       HORT+DUNN" ON UNIT 52 AT TIME STEP  4, STRESS PERIOD    5
 UBUDSV SAVING "  STORAGE CHANGE" ON UNIT 52 AT TIME STEP  4, STRESS PERIOD    5
 UBDSV4 SAVING "           AG WE" ON UNIT  52 AT TIME STEP  4, STRESS PERIOD   5

 HEAD WILL BE SAVED ON UNIT   51 AT END OF TIME STEP    4, STRESS PERIOD    5
 
 SOLVING FOR HEAD 

    ------------------------------------------------
       NWT REQUIRED            1 OUTER ITERATIONS 
       AND A TOTAL OF          2 INNER ITERATIONS.
    ------------------------------------------------

 OUTPUT CONTROL FOR STRESS PERIOD    5   TIME STEP    5
    SAVE HEAD FOR ALL LAYERS
    SAVE BUDGET
 UBDSV1 SAVING "         STORAGE" ON UNIT  52 AT TIME STEP  5, STRESS PERIOD   5
 UBDSV2 SAVING "   CONSTANT HEAD" ON UNIT  52 AT TIME STEP  5, STRESS PERIOD   5
 UBDSV1 SAVING "FLOW RIGHT FACE " ON UNIT  52 AT TIME STEP  5, STRESS PERIOD   5
 UBDSV1 SAVING "FLOW FRONT FACE " ON UNIT  52 AT TIME STEP  5, STRESS PERIOD   5
 UBDSV4 SAVING "  STREAM LEAKAGE" ON UNIT  52 AT TIME STEP  5, STRESS PERIOD   5



 UBUDSV SAVING "           GW ET" ON UNIT 52 AT TIME STEP  5, STRESS PERIOD    5
 UBUDSV SAVING "    UZF RECHARGE" ON UNIT 52 AT TIME STEP  5, STRESS PERIOD    5
 UBUDSV SAVING " SURFACE LEAKAGE" ON UNIT 52 AT TIME STEP  5, STRESS PERIOD    5
 UBUDSV SAVING "       HORT+DUNN" ON UNIT 52 AT TIME STEP  5, STRESS PERIOD    5
 UBUDSV SAVING "  STORAGE CHANGE" ON UNIT 52 AT TIME STEP  5, STRESS PERIOD    5
 UBDSV4 SAVING "           AG WE" ON UNIT  52 AT TIME STEP  5, STRESS PERIOD   5

 HEAD WILL BE SAVED ON UNIT   51 AT END OF TIME STEP    5, STRESS PERIOD    5
 
 SOLVING FOR HEAD 

    ------------------------------------------------
       NWT REQUIRED            1 OUTER ITERATIONS 
       AND A TOTAL OF          2 INNER ITERATIONS.
    ------------------------------------------------

 OUTPUT CONTROL FOR STRESS PERIOD    5   TIME STEP    6
    SAVE HEAD FOR ALL LAYERS
    SAVE BUDGET
 UBDSV1 SAVING "         STORAGE" ON UNIT  52 AT TIME STEP  6, STRESS PERIOD   5
 UBDSV2 SAVING "   CONSTANT HEAD" ON UNIT  52 AT TIME STEP  6, STRESS PERIOD   5
 UBDSV1 SAVING "FLOW RIGHT FACE " ON UNIT  52 AT TIME STEP  6, STRESS PERIOD   5
 UBDSV1 SAVING "FLOW FRONT FACE " ON UNIT  52 AT TIME STEP  6, STRESS PERIOD   5
 UBDSV4 SAVING "  STREAM LEAKAGE" ON UNIT  52 AT TIME STEP  6, STRESS PERIOD   5



 UBUDSV SAVING "           GW ET" ON UNIT 52 AT TIME STEP  6, STRESS PERIOD    5
 UBUDSV SAVING "    UZF RECHARGE" ON UNIT 52 AT TIME STEP  6, STRESS PERIOD    5
 UBUDSV SAVING " SURFACE LEAKAGE" ON UNIT 52 AT TIME STEP  6, STRESS PERIOD    5
 UBUDSV SAVING "       HORT+DUNN" ON UNIT 52 AT TIME STEP  6, STRESS PERIOD    5
 UBUDSV SAVING "  STORAGE CHANGE" ON UNIT 52 AT TIME STEP  6, STRESS PERIOD    5
 UBDSV4 SAVING "           AG WE" ON UNIT  52 AT TIME STEP  6, STRESS PERIOD   5

 HEAD WILL BE SAVED ON UNIT   51 AT END OF TIME STEP    6, STRESS PERIOD    5
 
 SOLVING FOR HEAD 

    ------------------------------------------------
       NWT REQUIRED            1 OUTER ITERATIONS 
       AND A TOTAL OF          2 INNER ITERATIONS.
    ------------------------------------------------

 OUTPUT CONTROL FOR STRESS PERIOD    5   TIME STEP    7
    SAVE HEAD FOR ALL LAYERS
    SAVE BUDGET
 UBDSV1 SAVING "         STORAGE" ON UNIT  52 AT TIME STEP  7, STRESS PERIOD   5
 UBDSV2 SAVING "   CONSTANT HEAD" ON UNIT  52 AT TIME STEP  7, STRESS PERIOD   5
 UBDSV1 SAVING "FLOW RIGHT FACE " ON UNIT  52 AT TIME STEP  7, STRESS PERIOD   5
 UBDSV1 SAVING "FLOW FRONT FACE " ON UNIT  52 AT TIME STEP  7, STRESS PERIOD   5
 UBDSV4 SAVING "  STREAM LEAKAGE" ON UNIT  52 AT TIME STEP  7, STRESS PERIOD   5



 UBUDSV SAVING "           GW ET" ON UNIT 52 AT TIME STEP  7, STRESS PERIOD    5
 UBUDSV SAVING "    UZF RECHARGE" ON UNIT 52 AT TIME STEP  7, STRESS PERIOD    5
 UBUDSV SAVING " SURFACE LEAKAGE" ON UNIT 52 AT TIME STEP  7, STRESS PERIOD    5
 UBUDSV SAVING "       HORT+DUNN" ON UNIT 52 AT TIME STEP  7, STRESS PERIOD    5
 UBUDSV SAVING "  STORAGE CHANGE" ON UNIT 52 AT TIME STEP  7, STRESS PERIOD    5
 UBDSV4 SAVING "           AG WE" ON UNIT  52 AT TIME STEP  7, STRESS PERIOD   5

 HEAD WILL BE SAVED ON UNIT   51 AT END OF TIME STEP    7, STRESS PERIOD    5
 
 SOLVING FOR HEAD 

    ------------------------------------------------
       NWT REQUIRED            1 OUTER ITERATIONS 
       AND A TOTAL OF          2 INNER ITERATIONS.
    ------------------------------------------------

 OUTPUT CONTROL FOR STRESS PERIOD    5   TIME STEP    8
    SAVE HEAD FOR ALL LAYERS
    SAVE BUDGET
 UBDSV1 SAVING "         STORAGE" ON UNIT  52 AT TIME STEP  8, STRESS PERIOD   5
 UBDSV2 SAVING "   CONSTANT HEAD" ON UNIT  52 AT TIME STEP  8, STRESS PERIOD   5
 UBDSV1 SAVING "FLOW RIGHT FACE " ON UNIT  52 AT TIME STEP  8, STRESS PERIOD   5
 UBDSV1 SAVING "FLOW FRONT FACE " ON UNIT  52 AT TIME STEP  8, STRESS PERIOD   5
 UBDSV4 SAVING "  STREAM LEAKAGE" ON UNIT  52 AT TIME STEP  8, STRESS PERIOD   5



 UBUDSV SAVING "           GW ET" ON UNIT 52 AT TIME STEP  8, STRESS PERIOD    5
 UBUDSV SAVING "    UZF RECHARGE" ON UNIT 52 AT TIME STEP  8, STRESS PERIOD    5
 UBUDSV SAVING " SURFACE LEAKAGE" ON UNIT 52 AT TIME STEP  8, STRESS PERIOD    5
 UBUDSV SAVING "       HORT+DUNN" ON UNIT 52 AT TIME STEP  8, STRESS PERIOD    5
 UBUDSV SAVING "  STORAGE CHANGE" ON UNIT 52 AT TIME STEP  8, STRESS PERIOD    5
 UBDSV4 SAVING "           AG WE" ON UNIT  52 AT TIME STEP  8, STRESS PERIOD   5

 HEAD WILL BE SAVED ON UNIT   51 AT END OF TIME STEP    8, STRESS PERIOD    5
 
 SOLVING FOR HEAD 

    ------------------------------------------------
       NWT REQUIRED            1 OUTER ITERATIONS 
       AND A TOTAL OF          2 INNER ITERATIONS.
    ------------------------------------------------

 OUTPUT CONTROL FOR STRESS PERIOD    5   TIME STEP    9
    SAVE HEAD FOR ALL LAYERS
    SAVE BUDGET
 UBDSV1 SAVING "         STORAGE" ON UNIT  52 AT TIME STEP  9, STRESS PERIOD   5
 UBDSV2 SAVING "   CONSTANT HEAD" ON UNIT  52 AT TIME STEP  9, STRESS PERIOD   5
 UBDSV1 SAVING "FLOW RIGHT FACE " ON UNIT  52 AT TIME STEP  9, STRESS PERIOD   5
 UBDSV1 SAVING "FLOW FRONT FACE " ON UNIT  52 AT TIME STEP  9, STRESS PERIOD   5
 UBDSV4 SAVING "  STREAM LEAKAGE" ON UNIT  52 AT TIME STEP  9, STRESS PERIOD   5



 UBUDSV SAVING "           GW ET" ON UNIT 52 AT TIME STEP  9, STRESS PERIOD    5
 UBUDSV SAVING "    UZF RECHARGE" ON UNIT 52 AT TIME STEP  9, STRESS PERIOD    5
 UBUDSV SAVING " SURFACE LEAKAGE" ON UNIT 52 AT TIME STEP  9, STRESS PERIOD    5
 UBUDSV SAVING "       HORT+DUNN" ON UNIT 52 AT TIME STEP  9, STRESS PERIOD    5
 UBUDSV SAVING "  STORAGE CHANGE" ON UNIT 52 AT TIME STEP  9, STRESS PERIOD    5
 UBDSV4 SAVING "           AG WE" ON UNIT  52 AT TIME STEP  9, STRESS PERIOD   5

 HEAD WILL BE SAVED ON UNIT   51 AT END OF TIME STEP    9, STRESS PERIOD    5
 
 SOLVING FOR HEAD 

    ------------------------------------------------
       NWT REQUIRED            1 OUTER ITERATIONS 
       AND A TOTAL OF          2 INNER ITERATIONS.
    ------------------------------------------------

 OUTPUT CONTROL FOR STRESS PERIOD    5   TIME STEP   10
    SAVE HEAD FOR ALL LAYERS
    SAVE BUDGET
 UBDSV1 SAVING "         STORAGE" ON UNIT  52 AT TIME STEP 10, STRESS PERIOD   5
 UBDSV2 SAVING "   CONSTANT HEAD" ON UNIT  52 AT TIME STEP 10, STRESS PERIOD   5
 UBDSV1 SAVING "FLOW RIGHT FACE " ON UNIT  52 AT TIME STEP 10, STRESS PERIOD   5
 UBDSV1 SAVING "FLOW FRONT FACE " ON UNIT  52 AT TIME STEP 10, STRESS PERIOD   5
 UBDSV4 SAVING "  STREAM LEAKAGE" ON UNIT  52 AT TIME STEP 10, STRESS PERIOD   5



 UBUDSV SAVING "           GW ET" ON UNIT 52 AT TIME STEP 10, STRESS PERIOD    5
 UBUDSV SAVING "    UZF RECHARGE" ON UNIT 52 AT TIME STEP 10, STRESS PERIOD    5
 UBUDSV SAVING " SURFACE LEAKAGE" ON UNIT 52 AT TIME STEP 10, STRESS PERIOD    5
 UBUDSV SAVING "       HORT+DUNN" ON UNIT 52 AT TIME STEP 10, STRESS PERIOD    5
 UBUDSV SAVING "  STORAGE CHANGE" ON UNIT 52 AT TIME STEP 10, STRESS PERIOD    5
 UBDSV4 SAVING "           AG WE" ON UNIT  52 AT TIME STEP 10, STRESS PERIOD   5

 HEAD WILL BE SAVED ON UNIT   51 AT END OF TIME STEP   10, STRESS PERIOD    5
 
 SOLVING FOR HEAD 

    ------------------------------------------------
       NWT REQUIRED            1 OUTER ITERATIONS 
       AND A TOTAL OF          2 INNER ITERATIONS.
    ------------------------------------------------

 OUTPUT CONTROL FOR STRESS PERIOD    5   TIME STEP   11
    SAVE HEAD FOR ALL LAYERS
    SAVE BUDGET
 UBDSV1 SAVING "         STORAGE" ON UNIT  52 AT TIME STEP 11, STRESS PERIOD   5
 UBDSV2 SAVING "   CONSTANT HEAD" ON UNIT  52 AT TIME STEP 11, STRESS PERIOD   5
 UBDSV1 SAVING "FLOW RIGHT FACE " ON UNIT  52 AT TIME STEP 11, STRESS PERIOD   5
 UBDSV1 SAVING "FLOW FRONT FACE " ON UNIT  52 AT TIME STEP 11, STRESS PERIOD   5
 UBDSV4 SAVING "  STREAM LEAKAGE" ON UNIT  52 AT TIME STEP 11, STRESS PERIOD   5



 UBUDSV SAVING "           GW ET" ON UNIT 52 AT TIME STEP 11, STRESS PERIOD    5
 UBUDSV SAVING "    UZF RECHARGE" ON UNIT 52 AT TIME STEP 11, STRESS PERIOD    5
 UBUDSV SAVING " SURFACE LEAKAGE" ON UNIT 52 AT TIME STEP 11, STRESS PERIOD    5
 UBUDSV SAVING "       HORT+DUNN" ON UNIT 52 AT TIME STEP 11, STRESS PERIOD    5
 UBUDSV SAVING "  STORAGE CHANGE" ON UNIT 52 AT TIME STEP 11, STRESS PERIOD    5
 UBDSV4 SAVING "           AG WE" ON UNIT  52 AT TIME STEP 11, STRESS PERIOD   5

 HEAD WILL BE SAVED ON UNIT   51 AT END OF TIME STEP   11, STRESS PERIOD    5
 
 SOLVING FOR HEAD 

    ------------------------------------------------
       NWT REQUIRED            1 OUTER ITERATIONS 
       AND A TOTAL OF          2 INNER ITERATIONS.
    ------------------------------------------------

 OUTPUT CONTROL FOR STRESS PERIOD    5   TIME STEP   12
    SAVE HEAD FOR ALL LAYERS
    SAVE BUDGET
 UBDSV1 SAVING "         STORAGE" ON UNIT  52 AT TIME STEP 12, STRESS PERIOD   5
 UBDSV2 SAVING "   CONSTANT HEAD" ON UNIT  52 AT TIME STEP 12, STRESS PERIOD   5
 UBDSV1 SAVING "FLOW RIGHT FACE " ON UNIT  52 AT TIME STEP 12, STRESS PERIOD   5
 UBDSV1 SAVING "FLOW FRONT FACE " ON UNIT  52 AT TIME STEP 12, STRESS PERIOD   5
 UBDSV4 SAVING "  STREAM LEAKAGE" ON UNIT  52 AT TIME STEP 12, STRESS PERIOD   5



 UBUDSV SAVING "           GW ET" ON UNIT 52 AT TIME STEP 12, STRESS PERIOD    5
 UBUDSV SAVING "    UZF RECHARGE" ON UNIT 52 AT TIME STEP 12, STRESS PERIOD    5
 UBUDSV SAVING " SURFACE LEAKAGE" ON UNIT 52 AT TIME STEP 12, STRESS PERIOD    5
 UBUDSV SAVING "       HORT+DUNN" ON UNIT 52 AT TIME STEP 12, STRESS PERIOD    5
 UBUDSV SAVING "  STORAGE CHANGE" ON UNIT 52 AT TIME STEP 12, STRESS PERIOD    5
 UBDSV4 SAVING "           AG WE" ON UNIT  52 AT TIME STEP 12, STRESS PERIOD   5

 HEAD WILL BE SAVED ON UNIT   51 AT END OF TIME STEP   12, STRESS PERIOD    5
 
 SOLVING FOR HEAD 

    ------------------------------------------------
       NWT REQUIRED            1 OUTER ITERATIONS 
       AND A TOTAL OF          2 INNER ITERATIONS.
    ------------------------------------------------

 OUTPUT CONTROL FOR STRESS PERIOD    5   TIME STEP   13
    SAVE HEAD FOR ALL LAYERS
    SAVE BUDGET
 UBDSV1 SAVING "         STORAGE" ON UNIT  52 AT TIME STEP 13, STRESS PERIOD   5
 UBDSV2 SAVING "   CONSTANT HEAD" ON UNIT  52 AT TIME STEP 13, STRESS PERIOD   5
 UBDSV1 SAVING "FLOW RIGHT FACE " ON UNIT  52 AT TIME STEP 13, STRESS PERIOD   5
 UBDSV1 SAVING "FLOW FRONT FACE " ON UNIT  52 AT TIME STEP 13, STRESS PERIOD   5
 UBDSV4 SAVING "  STREAM LEAKAGE" ON UNIT  52 AT TIME STEP 13, STRESS PERIOD   5



 UBUDSV SAVING "           GW ET" ON UNIT 52 AT TIME STEP 13, STRESS PERIOD    5
 UBUDSV SAVING "    UZF RECHARGE" ON UNIT 52 AT TIME STEP 13, STRESS PERIOD    5
 UBUDSV SAVING " SURFACE LEAKAGE" ON UNIT 52 AT TIME STEP 13, STRESS PERIOD    5
 UBUDSV SAVING "       HORT+DUNN" ON UNIT 52 AT TIME STEP 13, STRESS PERIOD    5
 UBUDSV SAVING "  STORAGE CHANGE" ON UNIT 52 AT TIME STEP 13, STRESS PERIOD    5
 UBDSV4 SAVING "           AG WE" ON UNIT  52 AT TIME STEP 13, STRESS PERIOD   5

 HEAD WILL BE SAVED ON UNIT   51 AT END OF TIME STEP   13, STRESS PERIOD    5
 
 SOLVING FOR HEAD 

    ------------------------------------------------
       NWT REQUIRED            1 OUTER ITERATIONS 
       AND A TOTAL OF          2 INNER ITERATIONS.
    ------------------------------------------------

 OUTPUT CONTROL FOR STRESS PERIOD    5   TIME STEP   14
    SAVE HEAD FOR ALL LAYERS
    SAVE BUDGET
 UBDSV1 SAVING "         STORAGE" ON UNIT  52 AT TIME STEP 14, STRESS PERIOD   5
 UBDSV2 SAVING "   CONSTANT HEAD" ON UNIT  52 AT TIME STEP 14, STRESS PERIOD   5
 UBDSV1 SAVING "FLOW RIGHT FACE " ON UNIT  52 AT TIME STEP 14, STRESS PERIOD   5
 UBDSV1 SAVING "FLOW FRONT FACE " ON UNIT  52 AT TIME STEP 14, STRESS PERIOD   5
 UBDSV4 SAVING "  STREAM LEAKAGE" ON UNIT  52 AT TIME STEP 14, STRESS PERIOD   5



 UBUDSV SAVING "           GW ET" ON UNIT 52 AT TIME STEP 14, STRESS PERIOD    5
 UBUDSV SAVING "    UZF RECHARGE" ON UNIT 52 AT TIME STEP 14, STRESS PERIOD    5
 UBUDSV SAVING " SURFACE LEAKAGE" ON UNIT 52 AT TIME STEP 14, STRESS PERIOD    5
 UBUDSV SAVING "       HORT+DUNN" ON UNIT 52 AT TIME STEP 14, STRESS PERIOD    5
 UBUDSV SAVING "  STORAGE CHANGE" ON UNIT 52 AT TIME STEP 14, STRESS PERIOD    5
 UBDSV4 SAVING "           AG WE" ON UNIT  52 AT TIME STEP 14, STRESS PERIOD   5

 HEAD WILL BE SAVED ON UNIT   51 AT END OF TIME STEP   14, STRESS PERIOD    5
 
 SOLVING FOR HEAD 

    ------------------------------------------------
       NWT REQUIRED            1 OUTER ITERATIONS 
       AND A TOTAL OF          2 INNER ITERATIONS.
    ------------------------------------------------

 OUTPUT CONTROL FOR STRESS PERIOD    5   TIME STEP   15
    SAVE HEAD FOR ALL LAYERS
    SAVE BUDGET
 UBDSV1 SAVING "         STORAGE" ON UNIT  52 AT TIME STEP 15, STRESS PERIOD   5
 UBDSV2 SAVING "   CONSTANT HEAD" ON UNIT  52 AT TIME STEP 15, STRESS PERIOD   5
 UBDSV1 SAVING "FLOW RIGHT FACE " ON UNIT  52 AT TIME STEP 15, STRESS PERIOD   5
 UBDSV1 SAVING "FLOW FRONT FACE " ON UNIT  52 AT TIME STEP 15, STRESS PERIOD   5
 UBDSV4 SAVING "  STREAM LEAKAGE" ON UNIT  52 AT TIME STEP 15, STRESS PERIOD   5



 UBUDSV SAVING "           GW ET" ON UNIT 52 AT TIME STEP 15, STRESS PERIOD    5
 UBUDSV SAVING "    UZF RECHARGE" ON UNIT 52 AT TIME STEP 15, STRESS PERIOD    5
 UBUDSV SAVING " SURFACE LEAKAGE" ON UNIT 52 AT TIME STEP 15, STRESS PERIOD    5
 UBUDSV SAVING "       HORT+DUNN" ON UNIT 52 AT TIME STEP 15, STRESS PERIOD    5
 UBUDSV SAVING "  STORAGE CHANGE" ON UNIT 52 AT TIME STEP 15, STRESS PERIOD    5
 UBDSV4 SAVING "           AG WE" ON UNIT  52 AT TIME STEP 15, STRESS PERIOD   5

 HEAD WILL BE SAVED ON UNIT   51 AT END OF TIME STEP   15, STRESS PERIOD    5
 
 SOLVING FOR HEAD 

    ------------------------------------------------
       NWT REQUIRED            1 OUTER ITERATIONS 
       AND A TOTAL OF          2 INNER ITERATIONS.
    ------------------------------------------------

 OUTPUT CONTROL FOR STRESS PERIOD    5   TIME STEP   16
    SAVE HEAD FOR ALL LAYERS
    SAVE BUDGET
 UBDSV1 SAVING "         STORAGE" ON UNIT  52 AT TIME STEP 16, STRESS PERIOD   5
 UBDSV2 SAVING "   CONSTANT HEAD" ON UNIT  52 AT TIME STEP 16, STRESS PERIOD   5
 UBDSV1 SAVING "FLOW RIGHT FACE " ON UNIT  52 AT TIME STEP 16, STRESS PERIOD   5
 UBDSV1 SAVING "FLOW FRONT FACE " ON UNIT  52 AT TIME STEP 16, STRESS PERIOD   5
 UBDSV4 SAVING "  STREAM LEAKAGE" ON UNIT  52 AT TIME STEP 16, STRESS PERIOD   5



 UBUDSV SAVING "           GW ET" ON UNIT 52 AT TIME STEP 16, STRESS PERIOD    5
 UBUDSV SAVING "    UZF RECHARGE" ON UNIT 52 AT TIME STEP 16, STRESS PERIOD    5
 UBUDSV SAVING " SURFACE LEAKAGE" ON UNIT 52 AT TIME STEP 16, STRESS PERIOD    5
 UBUDSV SAVING "       HORT+DUNN" ON UNIT 52 AT TIME STEP 16, STRESS PERIOD    5
 UBUDSV SAVING "  STORAGE CHANGE" ON UNIT 52 AT TIME STEP 16, STRESS PERIOD    5
 UBDSV4 SAVING "           AG WE" ON UNIT  52 AT TIME STEP 16, STRESS PERIOD   5

 HEAD WILL BE SAVED ON UNIT   51 AT END OF TIME STEP   16, STRESS PERIOD    5
 
 SOLVING FOR HEAD 

    ------------------------------------------------
       NWT REQUIRED            1 OUTER ITERATIONS 
       AND A TOTAL OF          2 INNER ITERATIONS.
    ------------------------------------------------

 OUTPUT CONTROL FOR STRESS PERIOD    5   TIME STEP   17
    SAVE HEAD FOR ALL LAYERS
    SAVE BUDGET
 UBDSV1 SAVING "         STORAGE" ON UNIT  52 AT TIME STEP 17, STRESS PERIOD   5
 UBDSV2 SAVING "   CONSTANT HEAD" ON UNIT  52 AT TIME STEP 17, STRESS PERIOD   5
 UBDSV1 SAVING "FLOW RIGHT FACE " ON UNIT  52 AT TIME STEP 17, STRESS PERIOD   5
 UBDSV1 SAVING "FLOW FRONT FACE " ON UNIT  52 AT TIME STEP 17, STRESS PERIOD   5
 UBDSV4 SAVING "  STREAM LEAKAGE" ON UNIT  52 AT TIME STEP 17, STRESS PERIOD   5



 UBUDSV SAVING "           GW ET" ON UNIT 52 AT TIME STEP 17, STRESS PERIOD    5
 UBUDSV SAVING "    UZF RECHARGE" ON UNIT 52 AT TIME STEP 17, STRESS PERIOD    5
 UBUDSV SAVING " SURFACE LEAKAGE" ON UNIT 52 AT TIME STEP 17, STRESS PERIOD    5
 UBUDSV SAVING "       HORT+DUNN" ON UNIT 52 AT TIME STEP 17, STRESS PERIOD    5
 UBUDSV SAVING "  STORAGE CHANGE" ON UNIT 52 AT TIME STEP 17, STRESS PERIOD    5
 UBDSV4 SAVING "           AG WE" ON UNIT  52 AT TIME STEP 17, STRESS PERIOD   5

 HEAD WILL BE SAVED ON UNIT   51 AT END OF TIME STEP   17, STRESS PERIOD    5
 
 SOLVING FOR HEAD 

    ------------------------------------------------
       NWT REQUIRED            1 OUTER ITERATIONS 
       AND A TOTAL OF          2 INNER ITERATIONS.
    ------------------------------------------------

 OUTPUT CONTROL FOR STRESS PERIOD    5   TIME STEP   18
    SAVE HEAD FOR ALL LAYERS
    SAVE BUDGET
 UBDSV1 SAVING "         STORAGE" ON UNIT  52 AT TIME STEP 18, STRESS PERIOD   5
 UBDSV2 SAVING "   CONSTANT HEAD" ON UNIT  52 AT TIME STEP 18, STRESS PERIOD   5
 UBDSV1 SAVING "FLOW RIGHT FACE " ON UNIT  52 AT TIME STEP 18, STRESS PERIOD   5
 UBDSV1 SAVING "FLOW FRONT FACE " ON UNIT  52 AT TIME STEP 18, STRESS PERIOD   5
 UBDSV4 SAVING "  STREAM LEAKAGE" ON UNIT  52 AT TIME STEP 18, STRESS PERIOD   5



 UBUDSV SAVING "           GW ET" ON UNIT 52 AT TIME STEP 18, STRESS PERIOD    5
 UBUDSV SAVING "    UZF RECHARGE" ON UNIT 52 AT TIME STEP 18, STRESS PERIOD    5
 UBUDSV SAVING " SURFACE LEAKAGE" ON UNIT 52 AT TIME STEP 18, STRESS PERIOD    5
 UBUDSV SAVING "       HORT+DUNN" ON UNIT 52 AT TIME STEP 18, STRESS PERIOD    5
 UBUDSV SAVING "  STORAGE CHANGE" ON UNIT 52 AT TIME STEP 18, STRESS PERIOD    5
 UBDSV4 SAVING "           AG WE" ON UNIT  52 AT TIME STEP 18, STRESS PERIOD   5

 HEAD WILL BE SAVED ON UNIT   51 AT END OF TIME STEP   18, STRESS PERIOD    5
 
 SOLVING FOR HEAD 

    ------------------------------------------------
       NWT REQUIRED            1 OUTER ITERATIONS 
       AND A TOTAL OF          2 INNER ITERATIONS.
    ------------------------------------------------

 OUTPUT CONTROL FOR STRESS PERIOD    5   TIME STEP   19
    SAVE HEAD FOR ALL LAYERS
    SAVE BUDGET
 UBDSV1 SAVING "         STORAGE" ON UNIT  52 AT TIME STEP 19, STRESS PERIOD   5
 UBDSV2 SAVING "   CONSTANT HEAD" ON UNIT  52 AT TIME STEP 19, STRESS PERIOD   5
 UBDSV1 SAVING "FLOW RIGHT FACE " ON UNIT  52 AT TIME STEP 19, STRESS PERIOD   5
 UBDSV1 SAVING "FLOW FRONT FACE " ON UNIT  52 AT TIME STEP 19, STRESS PERIOD   5
 UBDSV4 SAVING "  STREAM LEAKAGE" ON UNIT  52 AT TIME STEP 19, STRESS PERIOD   5



 UBUDSV SAVING "           GW ET" ON UNIT 52 AT TIME STEP 19, STRESS PERIOD    5
 UBUDSV SAVING "    UZF RECHARGE" ON UNIT 52 AT TIME STEP 19, STRESS PERIOD    5
 UBUDSV SAVING " SURFACE LEAKAGE" ON UNIT 52 AT TIME STEP 19, STRESS PERIOD    5
 UBUDSV SAVING "       HORT+DUNN" ON UNIT 52 AT TIME STEP 19, STRESS PERIOD    5
 UBUDSV SAVING "  STORAGE CHANGE" ON UNIT 52 AT TIME STEP 19, STRESS PERIOD    5
 UBDSV4 SAVING "           AG WE" ON UNIT  52 AT TIME STEP 19, STRESS PERIOD   5

 HEAD WILL BE SAVED ON UNIT   51 AT END OF TIME STEP   19, STRESS PERIOD    5
 
 SOLVING FOR HEAD 

    ------------------------------------------------
       NWT REQUIRED            1 OUTER ITERATIONS 
       AND A TOTAL OF          2 INNER ITERATIONS.
    ------------------------------------------------

 OUTPUT CONTROL FOR STRESS PERIOD    5   TIME STEP   20
    SAVE HEAD FOR ALL LAYERS
    SAVE BUDGET
 UBDSV1 SAVING "         STORAGE" ON UNIT  52 AT TIME STEP 20, STRESS PERIOD   5
 UBDSV2 SAVING "   CONSTANT HEAD" ON UNIT  52 AT TIME STEP 20, STRESS PERIOD   5
 UBDSV1 SAVING "FLOW RIGHT FACE " ON UNIT  52 AT TIME STEP 20, STRESS PERIOD   5
 UBDSV1 SAVING "FLOW FRONT FACE " ON UNIT  52 AT TIME STEP 20, STRESS PERIOD   5
 UBDSV4 SAVING "  STREAM LEAKAGE" ON UNIT  52 AT TIME STEP 20, STRESS PERIOD   5



 UBUDSV SAVING "           GW ET" ON UNIT 52 AT TIME STEP 20, STRESS PERIOD    5
 UBUDSV SAVING "    UZF RECHARGE" ON UNIT 52 AT TIME STEP 20, STRESS PERIOD    5
 UBUDSV SAVING " SURFACE LEAKAGE" ON UNIT 52 AT TIME STEP 20, STRESS PERIOD    5
 UBUDSV SAVING "       HORT+DUNN" ON UNIT 52 AT TIME STEP 20, STRESS PERIOD    5
 UBUDSV SAVING "  STORAGE CHANGE" ON UNIT 52 AT TIME STEP 20, STRESS PERIOD    5
 UBDSV4 SAVING "           AG WE" ON UNIT  52 AT TIME STEP 20, STRESS PERIOD   5

 HEAD WILL BE SAVED ON UNIT   51 AT END OF TIME STEP   20, STRESS PERIOD    5
 
 SOLVING FOR HEAD 

    ------------------------------------------------
       NWT REQUIRED            1 OUTER ITERATIONS 
       AND A TOTAL OF          2 INNER ITERATIONS.
    ------------------------------------------------

 OUTPUT CONTROL FOR STRESS PERIOD    5   TIME STEP   21
    SAVE HEAD FOR ALL LAYERS
    SAVE BUDGET
 UBDSV1 SAVING "         STORAGE" ON UNIT  52 AT TIME STEP 21, STRESS PERIOD   5
 UBDSV2 SAVING "   CONSTANT HEAD" ON UNIT  52 AT TIME STEP 21, STRESS PERIOD   5
 UBDSV1 SAVING "FLOW RIGHT FACE " ON UNIT  52 AT TIME STEP 21, STRESS PERIOD   5
 UBDSV1 SAVING "FLOW FRONT FACE " ON UNIT  52 AT TIME STEP 21, STRESS PERIOD   5
 UBDSV4 SAVING "  STREAM LEAKAGE" ON UNIT  52 AT TIME STEP 21, STRESS PERIOD   5



 UBUDSV SAVING "           GW ET" ON UNIT 52 AT TIME STEP 21, STRESS PERIOD    5
 UBUDSV SAVING "    UZF RECHARGE" ON UNIT 52 AT TIME STEP 21, STRESS PERIOD    5
 UBUDSV SAVING " SURFACE LEAKAGE" ON UNIT 52 AT TIME STEP 21, STRESS PERIOD    5
 UBUDSV SAVING "       HORT+DUNN" ON UNIT 52 AT TIME STEP 21, STRESS PERIOD    5
 UBUDSV SAVING "  STORAGE CHANGE" ON UNIT 52 AT TIME STEP 21, STRESS PERIOD    5
 UBDSV4 SAVING "           AG WE" ON UNIT  52 AT TIME STEP 21, STRESS PERIOD   5

 HEAD WILL BE SAVED ON UNIT   51 AT END OF TIME STEP   21, STRESS PERIOD    5
 
 SOLVING FOR HEAD 

    ------------------------------------------------
       NWT REQUIRED            1 OUTER ITERATIONS 
       AND A TOTAL OF          2 INNER ITERATIONS.
    ------------------------------------------------

 OUTPUT CONTROL FOR STRESS PERIOD    5   TIME STEP   22
    SAVE HEAD FOR ALL LAYERS
    SAVE BUDGET
 UBDSV1 SAVING "         STORAGE" ON UNIT  52 AT TIME STEP 22, STRESS PERIOD   5
 UBDSV2 SAVING "   CONSTANT HEAD" ON UNIT  52 AT TIME STEP 22, STRESS PERIOD   5
 UBDSV1 SAVING "FLOW RIGHT FACE " ON UNIT  52 AT TIME STEP 22, STRESS PERIOD   5
 UBDSV1 SAVING "FLOW FRONT FACE " ON UNIT  52 AT TIME STEP 22, STRESS PERIOD   5
 UBDSV4 SAVING "  STREAM LEAKAGE" ON UNIT  52 AT TIME STEP 22, STRESS PERIOD   5



 UBUDSV SAVING "           GW ET" ON UNIT 52 AT TIME STEP 22, STRESS PERIOD    5
 UBUDSV SAVING "    UZF RECHARGE" ON UNIT 52 AT TIME STEP 22, STRESS PERIOD    5
 UBUDSV SAVING " SURFACE LEAKAGE" ON UNIT 52 AT TIME STEP 22, STRESS PERIOD    5
 UBUDSV SAVING "       HORT+DUNN" ON UNIT 52 AT TIME STEP 22, STRESS PERIOD    5
 UBUDSV SAVING "  STORAGE CHANGE" ON UNIT 52 AT TIME STEP 22, STRESS PERIOD    5
 UBDSV4 SAVING "           AG WE" ON UNIT  52 AT TIME STEP 22, STRESS PERIOD   5

 HEAD WILL BE SAVED ON UNIT   51 AT END OF TIME STEP   22, STRESS PERIOD    5
 
 SOLVING FOR HEAD 

    ------------------------------------------------
       NWT REQUIRED            1 OUTER ITERATIONS 
       AND A TOTAL OF          2 INNER ITERATIONS.
    ------------------------------------------------

 OUTPUT CONTROL FOR STRESS PERIOD    5   TIME STEP   23
    SAVE HEAD FOR ALL LAYERS
    SAVE BUDGET
 UBDSV1 SAVING "         STORAGE" ON UNIT  52 AT TIME STEP 23, STRESS PERIOD   5
 UBDSV2 SAVING "   CONSTANT HEAD" ON UNIT  52 AT TIME STEP 23, STRESS PERIOD   5
 UBDSV1 SAVING "FLOW RIGHT FACE " ON UNIT  52 AT TIME STEP 23, STRESS PERIOD   5
 UBDSV1 SAVING "FLOW FRONT FACE " ON UNIT  52 AT TIME STEP 23, STRESS PERIOD   5
 UBDSV4 SAVING "  STREAM LEAKAGE" ON UNIT  52 AT TIME STEP 23, STRESS PERIOD   5



 UBUDSV SAVING "           GW ET" ON UNIT 52 AT TIME STEP 23, STRESS PERIOD    5
 UBUDSV SAVING "    UZF RECHARGE" ON UNIT 52 AT TIME STEP 23, STRESS PERIOD    5
 UBUDSV SAVING " SURFACE LEAKAGE" ON UNIT 52 AT TIME STEP 23, STRESS PERIOD    5
 UBUDSV SAVING "       HORT+DUNN" ON UNIT 52 AT TIME STEP 23, STRESS PERIOD    5
 UBUDSV SAVING "  STORAGE CHANGE" ON UNIT 52 AT TIME STEP 23, STRESS PERIOD    5
 UBDSV4 SAVING "           AG WE" ON UNIT  52 AT TIME STEP 23, STRESS PERIOD   5

 HEAD WILL BE SAVED ON UNIT   51 AT END OF TIME STEP   23, STRESS PERIOD    5
 
 SOLVING FOR HEAD 

    ------------------------------------------------
       NWT REQUIRED            1 OUTER ITERATIONS 
       AND A TOTAL OF          2 INNER ITERATIONS.
    ------------------------------------------------

 OUTPUT CONTROL FOR STRESS PERIOD    5   TIME STEP   24
    SAVE HEAD FOR ALL LAYERS
    SAVE BUDGET
 UBDSV1 SAVING "         STORAGE" ON UNIT  52 AT TIME STEP 24, STRESS PERIOD   5
 UBDSV2 SAVING "   CONSTANT HEAD" ON UNIT  52 AT TIME STEP 24, STRESS PERIOD   5
 UBDSV1 SAVING "FLOW RIGHT FACE " ON UNIT  52 AT TIME STEP 24, STRESS PERIOD   5
 UBDSV1 SAVING "FLOW FRONT FACE " ON UNIT  52 AT TIME STEP 24, STRESS PERIOD   5
 UBDSV4 SAVING "  STREAM LEAKAGE" ON UNIT  52 AT TIME STEP 24, STRESS PERIOD   5



 UBUDSV SAVING "           GW ET" ON UNIT 52 AT TIME STEP 24, STRESS PERIOD    5
 UBUDSV SAVING "    UZF RECHARGE" ON UNIT 52 AT TIME STEP 24, STRESS PERIOD    5
 UBUDSV SAVING " SURFACE LEAKAGE" ON UNIT 52 AT TIME STEP 24, STRESS PERIOD    5
 UBUDSV SAVING "       HORT+DUNN" ON UNIT 52 AT TIME STEP 24, STRESS PERIOD    5
 UBUDSV SAVING "  STORAGE CHANGE" ON UNIT 52 AT TIME STEP 24, STRESS PERIOD    5
 UBDSV4 SAVING "           AG WE" ON UNIT  52 AT TIME STEP 24, STRESS PERIOD   5

 HEAD WILL BE SAVED ON UNIT   51 AT END OF TIME STEP   24, STRESS PERIOD    5
 
 SOLVING FOR HEAD 

    ------------------------------------------------
       NWT REQUIRED            1 OUTER ITERATIONS 
       AND A TOTAL OF          2 INNER ITERATIONS.
    ------------------------------------------------

 OUTPUT CONTROL FOR STRESS PERIOD    5   TIME STEP   25
    SAVE HEAD FOR ALL LAYERS
    SAVE BUDGET
 UBDSV1 SAVING "         STORAGE" ON UNIT  52 AT TIME STEP 25, STRESS PERIOD   5
 UBDSV2 SAVING "   CONSTANT HEAD" ON UNIT  52 AT TIME STEP 25, STRESS PERIOD   5
 UBDSV1 SAVING "FLOW RIGHT FACE " ON UNIT  52 AT TIME STEP 25, STRESS PERIOD   5
 UBDSV1 SAVING "FLOW FRONT FACE " ON UNIT  52 AT TIME STEP 25, STRESS PERIOD   5
 UBDSV4 SAVING "  STREAM LEAKAGE" ON UNIT  52 AT TIME STEP 25, STRESS PERIOD   5



 UBUDSV SAVING "           GW ET" ON UNIT 52 AT TIME STEP 25, STRESS PERIOD    5
 UBUDSV SAVING "    UZF RECHARGE" ON UNIT 52 AT TIME STEP 25, STRESS PERIOD    5
 UBUDSV SAVING " SURFACE LEAKAGE" ON UNIT 52 AT TIME STEP 25, STRESS PERIOD    5
 UBUDSV SAVING "       HORT+DUNN" ON UNIT 52 AT TIME STEP 25, STRESS PERIOD    5
 UBUDSV SAVING "  STORAGE CHANGE" ON UNIT 52 AT TIME STEP 25, STRESS PERIOD    5
 UBDSV4 SAVING "           AG WE" ON UNIT  52 AT TIME STEP 25, STRESS PERIOD   5

 HEAD WILL BE SAVED ON UNIT   51 AT END OF TIME STEP   25, STRESS PERIOD    5
 
 SOLVING FOR HEAD 

    ------------------------------------------------
       NWT REQUIRED            1 OUTER ITERATIONS 
       AND A TOTAL OF          2 INNER ITERATIONS.
    ------------------------------------------------

 OUTPUT CONTROL FOR STRESS PERIOD    5   TIME STEP   26
    SAVE HEAD FOR ALL LAYERS
    SAVE BUDGET
 UBDSV1 SAVING "         STORAGE" ON UNIT  52 AT TIME STEP 26, STRESS PERIOD   5
 UBDSV2 SAVING "   CONSTANT HEAD" ON UNIT  52 AT TIME STEP 26, STRESS PERIOD   5
 UBDSV1 SAVING "FLOW RIGHT FACE " ON UNIT  52 AT TIME STEP 26, STRESS PERIOD   5
 UBDSV1 SAVING "FLOW FRONT FACE " ON UNIT  52 AT TIME STEP 26, STRESS PERIOD   5
 UBDSV4 SAVING "  STREAM LEAKAGE" ON UNIT  52 AT TIME STEP 26, STRESS PERIOD   5



 UBUDSV SAVING "           GW ET" ON UNIT 52 AT TIME STEP 26, STRESS PERIOD    5
 UBUDSV SAVING "    UZF RECHARGE" ON UNIT 52 AT TIME STEP 26, STRESS PERIOD    5
 UBUDSV SAVING " SURFACE LEAKAGE" ON UNIT 52 AT TIME STEP 26, STRESS PERIOD    5
 UBUDSV SAVING "       HORT+DUNN" ON UNIT 52 AT TIME STEP 26, STRESS PERIOD    5
 UBUDSV SAVING "  STORAGE CHANGE" ON UNIT 52 AT TIME STEP 26, STRESS PERIOD    5
 UBDSV4 SAVING "           AG WE" ON UNIT  52 AT TIME STEP 26, STRESS PERIOD   5

 HEAD WILL BE SAVED ON UNIT   51 AT END OF TIME STEP   26, STRESS PERIOD    5
 
 SOLVING FOR HEAD 

    ------------------------------------------------
       NWT REQUIRED            1 OUTER ITERATIONS 
       AND A TOTAL OF          2 INNER ITERATIONS.
    ------------------------------------------------

 OUTPUT CONTROL FOR STRESS PERIOD    5   TIME STEP   27
    SAVE HEAD FOR ALL LAYERS
    SAVE BUDGET
 UBDSV1 SAVING "         STORAGE" ON UNIT  52 AT TIME STEP 27, STRESS PERIOD   5
 UBDSV2 SAVING "   CONSTANT HEAD" ON UNIT  52 AT TIME STEP 27, STRESS PERIOD   5
 UBDSV1 SAVING "FLOW RIGHT FACE " ON UNIT  52 AT TIME STEP 27, STRESS PERIOD   5
 UBDSV1 SAVING "FLOW FRONT FACE " ON UNIT  52 AT TIME STEP 27, STRESS PERIOD   5
 UBDSV4 SAVING "  STREAM LEAKAGE" ON UNIT  52 AT TIME STEP 27, STRESS PERIOD   5



 UBUDSV SAVING "           GW ET" ON UNIT 52 AT TIME STEP 27, STRESS PERIOD    5
 UBUDSV SAVING "    UZF RECHARGE" ON UNIT 52 AT TIME STEP 27, STRESS PERIOD    5
 UBUDSV SAVING " SURFACE LEAKAGE" ON UNIT 52 AT TIME STEP 27, STRESS PERIOD    5
 UBUDSV SAVING "       HORT+DUNN" ON UNIT 52 AT TIME STEP 27, STRESS PERIOD    5
 UBUDSV SAVING "  STORAGE CHANGE" ON UNIT 52 AT TIME STEP 27, STRESS PERIOD    5
 UBDSV4 SAVING "           AG WE" ON UNIT  52 AT TIME STEP 27, STRESS PERIOD   5

 HEAD WILL BE SAVED ON UNIT   51 AT END OF TIME STEP   27, STRESS PERIOD    5
 
 SOLVING FOR HEAD 

    ------------------------------------------------
       NWT REQUIRED            1 OUTER ITERATIONS 
       AND A TOTAL OF          2 INNER ITERATIONS.
    ------------------------------------------------

 OUTPUT CONTROL FOR STRESS PERIOD    5   TIME STEP   28
    SAVE HEAD FOR ALL LAYERS
    SAVE BUDGET
 UBDSV1 SAVING "         STORAGE" ON UNIT  52 AT TIME STEP 28, STRESS PERIOD   5
 UBDSV2 SAVING "   CONSTANT HEAD" ON UNIT  52 AT TIME STEP 28, STRESS PERIOD   5
 UBDSV1 SAVING "FLOW RIGHT FACE " ON UNIT  52 AT TIME STEP 28, STRESS PERIOD   5
 UBDSV1 SAVING "FLOW FRONT FACE " ON UNIT  52 AT TIME STEP 28, STRESS PERIOD   5
 UBDSV4 SAVING "  STREAM LEAKAGE" ON UNIT  52 AT TIME STEP 28, STRESS PERIOD   5



 UBUDSV SAVING "           GW ET" ON UNIT 52 AT TIME STEP 28, STRESS PERIOD    5
 UBUDSV SAVING "    UZF RECHARGE" ON UNIT 52 AT TIME STEP 28, STRESS PERIOD    5
 UBUDSV SAVING " SURFACE LEAKAGE" ON UNIT 52 AT TIME STEP 28, STRESS PERIOD    5
 UBUDSV SAVING "       HORT+DUNN" ON UNIT 52 AT TIME STEP 28, STRESS PERIOD    5
 UBUDSV SAVING "  STORAGE CHANGE" ON UNIT 52 AT TIME STEP 28, STRESS PERIOD    5
 UBDSV4 SAVING "           AG WE" ON UNIT  52 AT TIME STEP 28, STRESS PERIOD   5

 HEAD WILL BE SAVED ON UNIT   51 AT END OF TIME STEP   28, STRESS PERIOD    5
 
 SOLVING FOR HEAD 

    ------------------------------------------------
       NWT REQUIRED            1 OUTER ITERATIONS 
       AND A TOTAL OF          2 INNER ITERATIONS.
    ------------------------------------------------

 OUTPUT CONTROL FOR STRESS PERIOD    5   TIME STEP   29
    SAVE HEAD FOR ALL LAYERS
    SAVE BUDGET
 UBDSV1 SAVING "         STORAGE" ON UNIT  52 AT TIME STEP 29, STRESS PERIOD   5
 UBDSV2 SAVING "   CONSTANT HEAD" ON UNIT  52 AT TIME STEP 29, STRESS PERIOD   5
 UBDSV1 SAVING "FLOW RIGHT FACE " ON UNIT  52 AT TIME STEP 29, STRESS PERIOD   5
 UBDSV1 SAVING "FLOW FRONT FACE " ON UNIT  52 AT TIME STEP 29, STRESS PERIOD   5
 UBDSV4 SAVING "  STREAM LEAKAGE" ON UNIT  52 AT TIME STEP 29, STRESS PERIOD   5



 UBUDSV SAVING "           GW ET" ON UNIT 52 AT TIME STEP 29, STRESS PERIOD    5
 UBUDSV SAVING "    UZF RECHARGE" ON UNIT 52 AT TIME STEP 29, STRESS PERIOD    5
 UBUDSV SAVING " SURFACE LEAKAGE" ON UNIT 52 AT TIME STEP 29, STRESS PERIOD    5
 UBUDSV SAVING "       HORT+DUNN" ON UNIT 52 AT TIME STEP 29, STRESS PERIOD    5
 UBUDSV SAVING "  STORAGE CHANGE" ON UNIT 52 AT TIME STEP 29, STRESS PERIOD    5
 UBDSV4 SAVING "           AG WE" ON UNIT  52 AT TIME STEP 29, STRESS PERIOD   5

 HEAD WILL BE SAVED ON UNIT   51 AT END OF TIME STEP   29, STRESS PERIOD    5
 
 SOLVING FOR HEAD 

    ------------------------------------------------
       NWT REQUIRED            1 OUTER ITERATIONS 
       AND A TOTAL OF          2 INNER ITERATIONS.
    ------------------------------------------------

 OUTPUT CONTROL FOR STRESS PERIOD    5   TIME STEP   30
    SAVE HEAD FOR ALL LAYERS
    SAVE BUDGET
 UBDSV1 SAVING "         STORAGE" ON UNIT  52 AT TIME STEP 30, STRESS PERIOD   5
 UBDSV2 SAVING "   CONSTANT HEAD" ON UNIT  52 AT TIME STEP 30, STRESS PERIOD   5
 UBDSV1 SAVING "FLOW RIGHT FACE " ON UNIT  52 AT TIME STEP 30, STRESS PERIOD   5
 UBDSV1 SAVING "FLOW FRONT FACE " ON UNIT  52 AT TIME STEP 30, STRESS PERIOD   5
 UBDSV4 SAVING "  STREAM LEAKAGE" ON UNIT  52 AT TIME STEP 30, STRESS PERIOD   5



 UBUDSV SAVING "           GW ET" ON UNIT 52 AT TIME STEP 30, STRESS PERIOD    5
 UBUDSV SAVING "    UZF RECHARGE" ON UNIT 52 AT TIME STEP 30, STRESS PERIOD    5
 UBUDSV SAVING " SURFACE LEAKAGE" ON UNIT 52 AT TIME STEP 30, STRESS PERIOD    5
 UBUDSV SAVING "       HORT+DUNN" ON UNIT 52 AT TIME STEP 30, STRESS PERIOD    5
 UBUDSV SAVING "  STORAGE CHANGE" ON UNIT 52 AT TIME STEP 30, STRESS PERIOD    5
 UBDSV4 SAVING "           AG WE" ON UNIT  52 AT TIME STEP 30, STRESS PERIOD   5

 HEAD WILL BE SAVED ON UNIT   51 AT END OF TIME STEP   30, STRESS PERIOD    5
 
 SOLVING FOR HEAD 

    ------------------------------------------------
       NWT REQUIRED            1 OUTER ITERATIONS 
       AND A TOTAL OF          2 INNER ITERATIONS.
    ------------------------------------------------

 OUTPUT CONTROL FOR STRESS PERIOD    5   TIME STEP   31
    SAVE HEAD FOR ALL LAYERS
    SAVE BUDGET
 UBDSV1 SAVING "         STORAGE" ON UNIT  52 AT TIME STEP 31, STRESS PERIOD   5
 UBDSV2 SAVING "   CONSTANT HEAD" ON UNIT  52 AT TIME STEP 31, STRESS PERIOD   5
 UBDSV1 SAVING "FLOW RIGHT FACE " ON UNIT  52 AT TIME STEP 31, STRESS PERIOD   5
 UBDSV1 SAVING "FLOW FRONT FACE " ON UNIT  52 AT TIME STEP 31, STRESS PERIOD   5
 UBDSV4 SAVING "  STREAM LEAKAGE" ON UNIT  52 AT TIME STEP 31, STRESS PERIOD   5



 UBUDSV SAVING "           GW ET" ON UNIT 52 AT TIME STEP 31, STRESS PERIOD    5
 UBUDSV SAVING "    UZF RECHARGE" ON UNIT 52 AT TIME STEP 31, STRESS PERIOD    5
 UBUDSV SAVING " SURFACE LEAKAGE" ON UNIT 52 AT TIME STEP 31, STRESS PERIOD    5
 UBUDSV SAVING "       HORT+DUNN" ON UNIT 52 AT TIME STEP 31, STRESS PERIOD    5
 UBUDSV SAVING "  STORAGE CHANGE" ON UNIT 52 AT TIME STEP 31, STRESS PERIOD    5


UNSATURATED ZONE PACKAGE VOLUMETRIC BUDGET FOR  TIME STEP    31 STRESS PERIOD    5
  ------------------------------------------------------------------------------



     CUMULATIVE VOLUMES      L**3       RATES FOR THIS TIME STEP      L**3/T
     ------------------                 ------------------------

           IN:                                      IN:
           ---                                      ---
        INFILTRATION =      117502.0595          INFILTRATION =         241.3361

          OUT:                                     OUT:
          ----                                     ----
              UZF ET =      140325.5620                UZF ET =         232.5283
        UZF RECHARGE =        8032.9979          UZF RECHARGE =          36.4994

            IN - OUT =      -30856.5004              IN - OUT =         -27.6917

          STORAGE:                                 STORAGE:
          --------                                 --------
      STORAGE CHANGE =      -30856.7557        STORAGE CHANGE =         -27.6917

 PERCENT DISCREPANCY IS DIFFERENCE BETWEEN IN-OUT MINUS CHANGE IN STORAGE
 DIVIDED BY THE AVERAGE OF IN AND OUT TIMES 100

 PERCENT DISCREPANCY =           0.00     PERCENT DISCREPANCY =           0.00






 UBDSV4 SAVING "           AG WE" ON UNIT  52 AT TIME STEP 31, STRESS PERIOD   5
1
  VOLUMETRIC BUDGET FOR AGRICULTURAL FIELDS AT TIME STEP   31, STRESS PERIOD   5
  ------------------------------------------------------------------------------

     CUMULATIVE VOLUMES      L**3       RATES FOR THIS TIME STEP      L**3/T
     ------------------                 ------------------------

           IN:                                      IN:
           ---                                      ---
               AG WELLS  =         831.1415                 AG WELLS  =          18.8243
      DIVERSION SEGMENTS =        1114.8610        DIVERSION SEGMENTS =          30.0000
           GW IRRIGATION =           0.0000             GW IRRIGATION =           0.0000
           SW IRRIGATION =           0.0000             SW IRRIGATION =           0.0000
        SYSTEM LOSSES GW =           0.0000          SYSTEM LOSSES GW =           0.0000
        SYSTEM LOSSES SW =           0.0000          SYSTEM LOSSES SW =           0.0000

                TOTAL IN =        1946.0024                  TOTAL IN =          48.8243

          OUT:                                     OUT:
          ----                                     ----
               AG WELLS  =           0.0000                 AG WELLS  =           0.0000
      DIVERSION SEGMENTS =           0.0000        DIVERSION SEGMENTS =           0.0000
           GW IRRIGATION =         831.1415             GW IRRIGATION =          18.8243
           SW IRRIGATION =        1114.8610             SW IRRIGATION =          30.0000
        SYSTEM LOSSES GW =           0.0000          SYSTEM LOSSES GW =           0.0000
        SYSTEM LOSSES SW =           0.0000          SYSTEM LOSSES SW =           0.0000

               TOTAL OUT =        1946.0024                 TOTAL OUT =          48.8243

                IN - OUT =           0.0000                  IN - OUT =           0.0000

     PERCENT DISCREPANCY =           0.00         PERCENT DISCREPANCY =           0.00




 HEAD WILL BE SAVED ON UNIT   51 AT END OF TIME STEP   31, STRESS PERIOD    5
1
  VOLUMETRIC BUDGET FOR ENTIRE MODEL AT END OF TIME STEP   31, STRESS PERIOD   5
  ------------------------------------------------------------------------------

     CUMULATIVE VOLUMES      L**3       RATES FOR THIS TIME STEP      L**3/T
     ------------------                 ------------------------

           IN:                                      IN:
           ---                                      ---
             STORAGE     =         196.2315               STORAGE     =           0.1025
       CONSTANT HEAD     =           0.0000         CONSTANT HEAD     =           0.0000
      STREAM LEAKAGE     =          11.4795        STREAM LEAKAGE     =       7.6023E-02
        UZF RECHARGE     =        8032.9980          UZF RECHARGE     =          36.4994
               GW ET     =           0.0000                 GW ET     =           0.0000
     SURFACE LEAKAGE     =           0.0000       SURFACE LEAKAGE     =           0.0000
           AG WELLS      =           0.0000             AG WELLS      =           0.0000

                TOTAL IN =        8240.7090                  TOTAL IN =          36.6779

          OUT:                                     OUT:
          ----                                     ----
             STORAGE     =        6598.9526               STORAGE     =          16.1629
       CONSTANT HEAD     =           0.0000         CONSTANT HEAD     =           0.0000
      STREAM LEAKAGE     =           0.0000        STREAM LEAKAGE     =           0.0000
        UZF RECHARGE     =           0.0000          UZF RECHARGE     =           0.0000
               GW ET     =           0.0000                 GW ET     =           0.0000
     SURFACE LEAKAGE     =           0.0000       SURFACE LEAKAGE     =           0.0000
           AG WELLS      =         831.1415             AG WELLS      =          18.8243

               TOTAL OUT =        7430.0942                 TOTAL OUT =          34.9871

                IN - OUT =         810.6147                  IN - OUT =           1.6908

     PERCENT DISCREPANCY =          10.35         PERCENT DISCREPANCY =           4.72






         TIME SUMMARY AT END OF TIME STEP   31 IN STRESS PERIOD    5
                    SECONDS     MINUTES      HOURS       DAYS        YEARS
                    -----------------------------------------------------------
   TIME STEP LENGTH  86400.      1440.0      24.000      1.0000     2.73785E-03
 STRESS PERIOD TIME 2.67840E+06  44640.      744.00      31.000     8.48734E-02
         TOTAL TIME 1.30464E+07 2.17440E+05  3624.0      151.00     0.41342    
1
1
                            STRESS PERIOD NO.    6, LENGTH =   30.00000    
                            -----------------------------------------------

                              NUMBER OF TIME STEPS =    30

                               MULTIPLIER FOR DELT =     1.000

                            INITIAL TIME STEP SIZE =   1.000000    



 CLASSIFICATION & COUNT OF STREAM SEGMENTS BASED ON SOURCE OF INFLOW:

                HEADWATER     DIVERSION     RECEIVES TRIBUTARY FLOW
                ---------     ---------     -----------------------
                     1              2               9



                    INPUT DATA FOR EACH STREAM SEGMENT
 ---------------------------------------------------------------------------------------------

 SEGMENT    SEG.     INFLOW   OVERLAND   STREAM    STREAM   ICALC  OUTFLOW  DIVERSION PRIORITY
    NO.    LENGTH     RATE     RUNOFF      ET       PPT.    METH.  TO SEG.  FROM SEG.    NO.

      1  1.000E+02 5.000E+01 0.000E+00 0.000E+00 0.000E+00    1        2        0        0
      2  1.000E+02 0.000E+00 0.000E+00 0.000E+00 0.000E+00    1        3        0        0
      3  1.000E+02 0.000E+00 0.000E+00 0.000E+00 0.000E+00    1        4        0        0
      4  1.000E+02 0.000E+00 0.000E+00 0.000E+00 0.000E+00    1        5        0        0
      5  1.000E+02 0.000E+00 0.000E+00 0.000E+00 0.000E+00    1        6        0        0
      6  1.000E+02 0.000E+00 0.000E+00 0.000E+00 0.000E+00    1        7        0        0
      7  1.000E+02 0.000E+00 0.000E+00 0.000E+00 0.000E+00    1        8        0        0
      8  1.000E+02 0.000E+00 0.000E+00 0.000E+00 0.000E+00    1        9        0        0
      9  1.000E+02 0.000E+00 0.000E+00 0.000E+00 0.000E+00    1       10        0        0
     10  1.000E+02 0.000E+00 0.000E+00 0.000E+00 0.000E+00    1        0        0        0
     11  1.000E+02 2.000E+01 0.000E+00 0.000E+00 0.000E+00    1        0        3        0
     12  1.000E+02 1.000E+01 0.000E+00 0.000E+00 0.000E+00    1        0        5        0


         STREAMBED PROPERTIES AND STREAM DIMENSIONS

 SEGMENT     BED HYD. COND.      BED THICKNESS     ELEV.-TOP OF BED     WIDTH OF STREAM     DEPTH OF STREAM    STREAM ROUGHNESS
    No.     UPPER     LOWER     UPPER     LOWER     UPPER     LOWER     UPPER     LOWER     UPPER     LOWER   CHANNEL      BANK

     1  1.500E-05 1.500E-05 5.000E-01 5.000E-01 9.900E+01 9.898E+01 5.000E+00 5.000E+00                     3.000E-02
     2  1.500E-05 1.500E-05 5.000E-01 5.000E-01 9.898E+01 9.896E+01 5.000E+00 5.000E+00                     3.000E-02
     3  1.500E-05 1.500E-05 5.000E-01 5.000E-01 9.896E+01 9.894E+01 5.000E+00 5.000E+00                     3.000E-02
     4  1.500E-05 1.500E-05 5.000E-01 5.000E-01 9.894E+01 9.892E+01 5.000E+00 5.000E+00                     3.000E-02
     5  1.500E-05 1.500E-05 5.000E-01 5.000E-01 9.892E+01 9.890E+01 5.000E+00 5.000E+00                     3.000E-02
     6  1.500E-05 1.500E-05 5.000E-01 5.000E-01 9.890E+01 9.888E+01 5.000E+00 5.000E+00                     3.000E-02
     7  1.500E-05 1.500E-05 5.000E-01 5.000E-01 9.888E+01 9.886E+01 5.000E+00 5.000E+00                     3.000E-02
     8  1.500E-05 1.500E-05 5.000E-01 5.000E-01 9.886E+01 9.884E+01 5.000E+00 5.000E+00                     3.000E-02
     9  1.500E-05 1.500E-05 5.000E-01 5.000E-01 9.884E+01 9.882E+01 5.000E+00 5.000E+00                     3.000E-02
    10  1.500E-05 1.500E-05 5.000E-01 5.000E-01 9.882E+01 9.880E+01 5.000E+00 5.000E+00                     3.000E-02
    11  1.500E-05 1.500E-05 5.000E-01 5.000E-01 9.894E+01 9.892E+01 5.000E+00 5.000E+00                     3.000E-02
    12  1.500E-05 1.500E-05 5.000E-01 5.000E-01 9.890E+01 9.888E+01 5.000E+00 5.000E+00                     3.000E-02






            AREAL INFILTRATION RATE
 READING ON UNIT   19 WITH FORMAT: (10E15.6)           



                            ET RATE
 READING ON UNIT   19 WITH FORMAT: (10E15.6)           



                ET EXTINCTION DEPTH
 READING ON UNIT   19 WITH FORMAT: (10E15.6)           



           EXTINCTION WATER CONTENT
 READING ON UNIT   19 WITH FORMAT: (10E15.6)           

 PROCESSING AG STRESS PERIOD DATA

 READING AG STRESS PERIOD DATA

 READING IRRIGATION SEGMENT

 READING IRRIGATION WELL

 READING SUPPLEMENTAL WELL

 END PROCESSING AG STRESS PERIOD DATA OPTIONS
 
 SOLVING FOR HEAD 

    ------------------------------------------------
       NWT REQUIRED            1 OUTER ITERATIONS 
       AND A TOTAL OF          2 INNER ITERATIONS.
    ------------------------------------------------

 OUTPUT CONTROL FOR STRESS PERIOD    6   TIME STEP    1
    SAVE HEAD FOR ALL LAYERS
    SAVE BUDGET
 UBDSV1 SAVING "         STORAGE" ON UNIT  52 AT TIME STEP  1, STRESS PERIOD   6
 UBDSV2 SAVING "   CONSTANT HEAD" ON UNIT  52 AT TIME STEP  1, STRESS PERIOD   6
 UBDSV1 SAVING "FLOW RIGHT FACE " ON UNIT  52 AT TIME STEP  1, STRESS PERIOD   6
 UBDSV1 SAVING "FLOW FRONT FACE " ON UNIT  52 AT TIME STEP  1, STRESS PERIOD   6
 UBDSV4 SAVING "  STREAM LEAKAGE" ON UNIT  52 AT TIME STEP  1, STRESS PERIOD   6



 UBUDSV SAVING "           GW ET" ON UNIT 52 AT TIME STEP  1, STRESS PERIOD    6
 UBUDSV SAVING "    UZF RECHARGE" ON UNIT 52 AT TIME STEP  1, STRESS PERIOD    6
 UBUDSV SAVING " SURFACE LEAKAGE" ON UNIT 52 AT TIME STEP  1, STRESS PERIOD    6
 UBUDSV SAVING "       HORT+DUNN" ON UNIT 52 AT TIME STEP  1, STRESS PERIOD    6
 UBUDSV SAVING "  STORAGE CHANGE" ON UNIT 52 AT TIME STEP  1, STRESS PERIOD    6
 UBDSV4 SAVING "           AG WE" ON UNIT  52 AT TIME STEP  1, STRESS PERIOD   6

 HEAD WILL BE SAVED ON UNIT   51 AT END OF TIME STEP    1, STRESS PERIOD    6
 
 SOLVING FOR HEAD 

    ------------------------------------------------
       NWT REQUIRED            1 OUTER ITERATIONS 
       AND A TOTAL OF          2 INNER ITERATIONS.
    ------------------------------------------------

 OUTPUT CONTROL FOR STRESS PERIOD    6   TIME STEP    2
    SAVE HEAD FOR ALL LAYERS
    SAVE BUDGET
 UBDSV1 SAVING "         STORAGE" ON UNIT  52 AT TIME STEP  2, STRESS PERIOD   6
 UBDSV2 SAVING "   CONSTANT HEAD" ON UNIT  52 AT TIME STEP  2, STRESS PERIOD   6
 UBDSV1 SAVING "FLOW RIGHT FACE " ON UNIT  52 AT TIME STEP  2, STRESS PERIOD   6
 UBDSV1 SAVING "FLOW FRONT FACE " ON UNIT  52 AT TIME STEP  2, STRESS PERIOD   6
 UBDSV4 SAVING "  STREAM LEAKAGE" ON UNIT  52 AT TIME STEP  2, STRESS PERIOD   6



 UBUDSV SAVING "           GW ET" ON UNIT 52 AT TIME STEP  2, STRESS PERIOD    6
 UBUDSV SAVING "    UZF RECHARGE" ON UNIT 52 AT TIME STEP  2, STRESS PERIOD    6
 UBUDSV SAVING " SURFACE LEAKAGE" ON UNIT 52 AT TIME STEP  2, STRESS PERIOD    6
 UBUDSV SAVING "       HORT+DUNN" ON UNIT 52 AT TIME STEP  2, STRESS PERIOD    6
 UBUDSV SAVING "  STORAGE CHANGE" ON UNIT 52 AT TIME STEP  2, STRESS PERIOD    6
 UBDSV4 SAVING "           AG WE" ON UNIT  52 AT TIME STEP  2, STRESS PERIOD   6

 HEAD WILL BE SAVED ON UNIT   51 AT END OF TIME STEP    2, STRESS PERIOD    6
 
 SOLVING FOR HEAD 

    ------------------------------------------------
       NWT REQUIRED            1 OUTER ITERATIONS 
       AND A TOTAL OF          2 INNER ITERATIONS.
    ------------------------------------------------

 OUTPUT CONTROL FOR STRESS PERIOD    6   TIME STEP    3
    SAVE HEAD FOR ALL LAYERS
    SAVE BUDGET
 UBDSV1 SAVING "         STORAGE" ON UNIT  52 AT TIME STEP  3, STRESS PERIOD   6
 UBDSV2 SAVING "   CONSTANT HEAD" ON UNIT  52 AT TIME STEP  3, STRESS PERIOD   6
 UBDSV1 SAVING "FLOW RIGHT FACE " ON UNIT  52 AT TIME STEP  3, STRESS PERIOD   6
 UBDSV1 SAVING "FLOW FRONT FACE " ON UNIT  52 AT TIME STEP  3, STRESS PERIOD   6
 UBDSV4 SAVING "  STREAM LEAKAGE" ON UNIT  52 AT TIME STEP  3, STRESS PERIOD   6



 UBUDSV SAVING "           GW ET" ON UNIT 52 AT TIME STEP  3, STRESS PERIOD    6
 UBUDSV SAVING "    UZF RECHARGE" ON UNIT 52 AT TIME STEP  3, STRESS PERIOD    6
 UBUDSV SAVING " SURFACE LEAKAGE" ON UNIT 52 AT TIME STEP  3, STRESS PERIOD    6
 UBUDSV SAVING "       HORT+DUNN" ON UNIT 52 AT TIME STEP  3, STRESS PERIOD    6
 UBUDSV SAVING "  STORAGE CHANGE" ON UNIT 52 AT TIME STEP  3, STRESS PERIOD    6
 UBDSV4 SAVING "           AG WE" ON UNIT  52 AT TIME STEP  3, STRESS PERIOD   6

 HEAD WILL BE SAVED ON UNIT   51 AT END OF TIME STEP    3, STRESS PERIOD    6
 
 SOLVING FOR HEAD 

    ------------------------------------------------
       NWT REQUIRED            1 OUTER ITERATIONS 
       AND A TOTAL OF          2 INNER ITERATIONS.
    ------------------------------------------------

 OUTPUT CONTROL FOR STRESS PERIOD    6   TIME STEP    4
    SAVE HEAD FOR ALL LAYERS
    SAVE BUDGET
 UBDSV1 SAVING "         STORAGE" ON UNIT  52 AT TIME STEP  4, STRESS PERIOD   6
 UBDSV2 SAVING "   CONSTANT HEAD" ON UNIT  52 AT TIME STEP  4, STRESS PERIOD   6
 UBDSV1 SAVING "FLOW RIGHT FACE " ON UNIT  52 AT TIME STEP  4, STRESS PERIOD   6
 UBDSV1 SAVING "FLOW FRONT FACE " ON UNIT  52 AT TIME STEP  4, STRESS PERIOD   6
 UBDSV4 SAVING "  STREAM LEAKAGE" ON UNIT  52 AT TIME STEP  4, STRESS PERIOD   6



 UBUDSV SAVING "           GW ET" ON UNIT 52 AT TIME STEP  4, STRESS PERIOD    6
 UBUDSV SAVING "    UZF RECHARGE" ON UNIT 52 AT TIME STEP  4, STRESS PERIOD    6
 UBUDSV SAVING " SURFACE LEAKAGE" ON UNIT 52 AT TIME STEP  4, STRESS PERIOD    6
 UBUDSV SAVING "       HORT+DUNN" ON UNIT 52 AT TIME STEP  4, STRESS PERIOD    6
 UBUDSV SAVING "  STORAGE CHANGE" ON UNIT 52 AT TIME STEP  4, STRESS PERIOD    6
 UBDSV4 SAVING "           AG WE" ON UNIT  52 AT TIME STEP  4, STRESS PERIOD   6

 HEAD WILL BE SAVED ON UNIT   51 AT END OF TIME STEP    4, STRESS PERIOD    6
 
 SOLVING FOR HEAD 

    ------------------------------------------------
       NWT REQUIRED            1 OUTER ITERATIONS 
       AND A TOTAL OF          2 INNER ITERATIONS.
    ------------------------------------------------

 OUTPUT CONTROL FOR STRESS PERIOD    6   TIME STEP    5
    SAVE HEAD FOR ALL LAYERS
    SAVE BUDGET
 UBDSV1 SAVING "         STORAGE" ON UNIT  52 AT TIME STEP  5, STRESS PERIOD   6
 UBDSV2 SAVING "   CONSTANT HEAD" ON UNIT  52 AT TIME STEP  5, STRESS PERIOD   6
 UBDSV1 SAVING "FLOW RIGHT FACE " ON UNIT  52 AT TIME STEP  5, STRESS PERIOD   6
 UBDSV1 SAVING "FLOW FRONT FACE " ON UNIT  52 AT TIME STEP  5, STRESS PERIOD   6
 UBDSV4 SAVING "  STREAM LEAKAGE" ON UNIT  52 AT TIME STEP  5, STRESS PERIOD   6



 UBUDSV SAVING "           GW ET" ON UNIT 52 AT TIME STEP  5, STRESS PERIOD    6
 UBUDSV SAVING "    UZF RECHARGE" ON UNIT 52 AT TIME STEP  5, STRESS PERIOD    6
 UBUDSV SAVING " SURFACE LEAKAGE" ON UNIT 52 AT TIME STEP  5, STRESS PERIOD    6
 UBUDSV SAVING "       HORT+DUNN" ON UNIT 52 AT TIME STEP  5, STRESS PERIOD    6
 UBUDSV SAVING "  STORAGE CHANGE" ON UNIT 52 AT TIME STEP  5, STRESS PERIOD    6
 UBDSV4 SAVING "           AG WE" ON UNIT  52 AT TIME STEP  5, STRESS PERIOD   6

 HEAD WILL BE SAVED ON UNIT   51 AT END OF TIME STEP    5, STRESS PERIOD    6
 
 SOLVING FOR HEAD 

    ------------------------------------------------
       NWT REQUIRED            1 OUTER ITERATIONS 
       AND A TOTAL OF          2 INNER ITERATIONS.
    ------------------------------------------------

 OUTPUT CONTROL FOR STRESS PERIOD    6   TIME STEP    6
    SAVE HEAD FOR ALL LAYERS
    SAVE BUDGET
 UBDSV1 SAVING "         STORAGE" ON UNIT  52 AT TIME STEP  6, STRESS PERIOD   6
 UBDSV2 SAVING "   CONSTANT HEAD" ON UNIT  52 AT TIME STEP  6, STRESS PERIOD   6
 UBDSV1 SAVING "FLOW RIGHT FACE " ON UNIT  52 AT TIME STEP  6, STRESS PERIOD   6
 UBDSV1 SAVING "FLOW FRONT FACE " ON UNIT  52 AT TIME STEP  6, STRESS PERIOD   6
 UBDSV4 SAVING "  STREAM LEAKAGE" ON UNIT  52 AT TIME STEP  6, STRESS PERIOD   6



 UBUDSV SAVING "           GW ET" ON UNIT 52 AT TIME STEP  6, STRESS PERIOD    6
 UBUDSV SAVING "    UZF RECHARGE" ON UNIT 52 AT TIME STEP  6, STRESS PERIOD    6
 UBUDSV SAVING " SURFACE LEAKAGE" ON UNIT 52 AT TIME STEP  6, STRESS PERIOD    6
 UBUDSV SAVING "       HORT+DUNN" ON UNIT 52 AT TIME STEP  6, STRESS PERIOD    6
 UBUDSV SAVING "  STORAGE CHANGE" ON UNIT 52 AT TIME STEP  6, STRESS PERIOD    6
 UBDSV4 SAVING "           AG WE" ON UNIT  52 AT TIME STEP  6, STRESS PERIOD   6

 HEAD WILL BE SAVED ON UNIT   51 AT END OF TIME STEP    6, STRESS PERIOD    6
 
 SOLVING FOR HEAD 

    ------------------------------------------------
       NWT REQUIRED            1 OUTER ITERATIONS 
       AND A TOTAL OF          2 INNER ITERATIONS.
    ------------------------------------------------

 OUTPUT CONTROL FOR STRESS PERIOD    6   TIME STEP    7
    SAVE HEAD FOR ALL LAYERS
    SAVE BUDGET
 UBDSV1 SAVING "         STORAGE" ON UNIT  52 AT TIME STEP  7, STRESS PERIOD   6
 UBDSV2 SAVING "   CONSTANT HEAD" ON UNIT  52 AT TIME STEP  7, STRESS PERIOD   6
 UBDSV1 SAVING "FLOW RIGHT FACE " ON UNIT  52 AT TIME STEP  7, STRESS PERIOD   6
 UBDSV1 SAVING "FLOW FRONT FACE " ON UNIT  52 AT TIME STEP  7, STRESS PERIOD   6
 UBDSV4 SAVING "  STREAM LEAKAGE" ON UNIT  52 AT TIME STEP  7, STRESS PERIOD   6



 UBUDSV SAVING "           GW ET" ON UNIT 52 AT TIME STEP  7, STRESS PERIOD    6
 UBUDSV SAVING "    UZF RECHARGE" ON UNIT 52 AT TIME STEP  7, STRESS PERIOD    6
 UBUDSV SAVING " SURFACE LEAKAGE" ON UNIT 52 AT TIME STEP  7, STRESS PERIOD    6
 UBUDSV SAVING "       HORT+DUNN" ON UNIT 52 AT TIME STEP  7, STRESS PERIOD    6
 UBUDSV SAVING "  STORAGE CHANGE" ON UNIT 52 AT TIME STEP  7, STRESS PERIOD    6
 UBDSV4 SAVING "           AG WE" ON UNIT  52 AT TIME STEP  7, STRESS PERIOD   6

 HEAD WILL BE SAVED ON UNIT   51 AT END OF TIME STEP    7, STRESS PERIOD    6
 
 SOLVING FOR HEAD 

    ------------------------------------------------
       NWT REQUIRED            1 OUTER ITERATIONS 
       AND A TOTAL OF          2 INNER ITERATIONS.
    ------------------------------------------------

 OUTPUT CONTROL FOR STRESS PERIOD    6   TIME STEP    8
    SAVE HEAD FOR ALL LAYERS
    SAVE BUDGET
 UBDSV1 SAVING "         STORAGE" ON UNIT  52 AT TIME STEP  8, STRESS PERIOD   6
 UBDSV2 SAVING "   CONSTANT HEAD" ON UNIT  52 AT TIME STEP  8, STRESS PERIOD   6
 UBDSV1 SAVING "FLOW RIGHT FACE " ON UNIT  52 AT TIME STEP  8, STRESS PERIOD   6
 UBDSV1 SAVING "FLOW FRONT FACE " ON UNIT  52 AT TIME STEP  8, STRESS PERIOD   6
 UBDSV4 SAVING "  STREAM LEAKAGE" ON UNIT  52 AT TIME STEP  8, STRESS PERIOD   6



 UBUDSV SAVING "           GW ET" ON UNIT 52 AT TIME STEP  8, STRESS PERIOD    6
 UBUDSV SAVING "    UZF RECHARGE" ON UNIT 52 AT TIME STEP  8, STRESS PERIOD    6
 UBUDSV SAVING " SURFACE LEAKAGE" ON UNIT 52 AT TIME STEP  8, STRESS PERIOD    6
 UBUDSV SAVING "       HORT+DUNN" ON UNIT 52 AT TIME STEP  8, STRESS PERIOD    6
 UBUDSV SAVING "  STORAGE CHANGE" ON UNIT 52 AT TIME STEP  8, STRESS PERIOD    6
 UBDSV4 SAVING "           AG WE" ON UNIT  52 AT TIME STEP  8, STRESS PERIOD   6

 HEAD WILL BE SAVED ON UNIT   51 AT END OF TIME STEP    8, STRESS PERIOD    6
 
 SOLVING FOR HEAD 

    ------------------------------------------------
       NWT REQUIRED            1 OUTER ITERATIONS 
       AND A TOTAL OF          2 INNER ITERATIONS.
    ------------------------------------------------

 OUTPUT CONTROL FOR STRESS PERIOD    6   TIME STEP    9
    SAVE HEAD FOR ALL LAYERS
    SAVE BUDGET
 UBDSV1 SAVING "         STORAGE" ON UNIT  52 AT TIME STEP  9, STRESS PERIOD   6
 UBDSV2 SAVING "   CONSTANT HEAD" ON UNIT  52 AT TIME STEP  9, STRESS PERIOD   6
 UBDSV1 SAVING "FLOW RIGHT FACE " ON UNIT  52 AT TIME STEP  9, STRESS PERIOD   6
 UBDSV1 SAVING "FLOW FRONT FACE " ON UNIT  52 AT TIME STEP  9, STRESS PERIOD   6
 UBDSV4 SAVING "  STREAM LEAKAGE" ON UNIT  52 AT TIME STEP  9, STRESS PERIOD   6



 UBUDSV SAVING "           GW ET" ON UNIT 52 AT TIME STEP  9, STRESS PERIOD    6
 UBUDSV SAVING "    UZF RECHARGE" ON UNIT 52 AT TIME STEP  9, STRESS PERIOD    6
 UBUDSV SAVING " SURFACE LEAKAGE" ON UNIT 52 AT TIME STEP  9, STRESS PERIOD    6
 UBUDSV SAVING "       HORT+DUNN" ON UNIT 52 AT TIME STEP  9, STRESS PERIOD    6
 UBUDSV SAVING "  STORAGE CHANGE" ON UNIT 52 AT TIME STEP  9, STRESS PERIOD    6
 UBDSV4 SAVING "           AG WE" ON UNIT  52 AT TIME STEP  9, STRESS PERIOD   6

 HEAD WILL BE SAVED ON UNIT   51 AT END OF TIME STEP    9, STRESS PERIOD    6
 
 SOLVING FOR HEAD 

    ------------------------------------------------
       NWT REQUIRED            1 OUTER ITERATIONS 
       AND A TOTAL OF          2 INNER ITERATIONS.
    ------------------------------------------------

 OUTPUT CONTROL FOR STRESS PERIOD    6   TIME STEP   10
    SAVE HEAD FOR ALL LAYERS
    SAVE BUDGET
 UBDSV1 SAVING "         STORAGE" ON UNIT  52 AT TIME STEP 10, STRESS PERIOD   6
 UBDSV2 SAVING "   CONSTANT HEAD" ON UNIT  52 AT TIME STEP 10, STRESS PERIOD   6
 UBDSV1 SAVING "FLOW RIGHT FACE " ON UNIT  52 AT TIME STEP 10, STRESS PERIOD   6
 UBDSV1 SAVING "FLOW FRONT FACE " ON UNIT  52 AT TIME STEP 10, STRESS PERIOD   6
 UBDSV4 SAVING "  STREAM LEAKAGE" ON UNIT  52 AT TIME STEP 10, STRESS PERIOD   6



 UBUDSV SAVING "           GW ET" ON UNIT 52 AT TIME STEP 10, STRESS PERIOD    6
 UBUDSV SAVING "    UZF RECHARGE" ON UNIT 52 AT TIME STEP 10, STRESS PERIOD    6
 UBUDSV SAVING " SURFACE LEAKAGE" ON UNIT 52 AT TIME STEP 10, STRESS PERIOD    6
 UBUDSV SAVING "       HORT+DUNN" ON UNIT 52 AT TIME STEP 10, STRESS PERIOD    6
 UBUDSV SAVING "  STORAGE CHANGE" ON UNIT 52 AT TIME STEP 10, STRESS PERIOD    6
 UBDSV4 SAVING "           AG WE" ON UNIT  52 AT TIME STEP 10, STRESS PERIOD   6

 HEAD WILL BE SAVED ON UNIT   51 AT END OF TIME STEP   10, STRESS PERIOD    6
 
 SOLVING FOR HEAD 

    ------------------------------------------------
       NWT REQUIRED            1 OUTER ITERATIONS 
       AND A TOTAL OF          2 INNER ITERATIONS.
    ------------------------------------------------

 OUTPUT CONTROL FOR STRESS PERIOD    6   TIME STEP   11
    SAVE HEAD FOR ALL LAYERS
    SAVE BUDGET
 UBDSV1 SAVING "         STORAGE" ON UNIT  52 AT TIME STEP 11, STRESS PERIOD   6
 UBDSV2 SAVING "   CONSTANT HEAD" ON UNIT  52 AT TIME STEP 11, STRESS PERIOD   6
 UBDSV1 SAVING "FLOW RIGHT FACE " ON UNIT  52 AT TIME STEP 11, STRESS PERIOD   6
 UBDSV1 SAVING "FLOW FRONT FACE " ON UNIT  52 AT TIME STEP 11, STRESS PERIOD   6
 UBDSV4 SAVING "  STREAM LEAKAGE" ON UNIT  52 AT TIME STEP 11, STRESS PERIOD   6



 UBUDSV SAVING "           GW ET" ON UNIT 52 AT TIME STEP 11, STRESS PERIOD    6
 UBUDSV SAVING "    UZF RECHARGE" ON UNIT 52 AT TIME STEP 11, STRESS PERIOD    6
 UBUDSV SAVING " SURFACE LEAKAGE" ON UNIT 52 AT TIME STEP 11, STRESS PERIOD    6
 UBUDSV SAVING "       HORT+DUNN" ON UNIT 52 AT TIME STEP 11, STRESS PERIOD    6
 UBUDSV SAVING "  STORAGE CHANGE" ON UNIT 52 AT TIME STEP 11, STRESS PERIOD    6
 UBDSV4 SAVING "           AG WE" ON UNIT  52 AT TIME STEP 11, STRESS PERIOD   6

 HEAD WILL BE SAVED ON UNIT   51 AT END OF TIME STEP   11, STRESS PERIOD    6
 
 SOLVING FOR HEAD 

    ------------------------------------------------
       NWT REQUIRED            1 OUTER ITERATIONS 
       AND A TOTAL OF          2 INNER ITERATIONS.
    ------------------------------------------------

 OUTPUT CONTROL FOR STRESS PERIOD    6   TIME STEP   12
    SAVE HEAD FOR ALL LAYERS
    SAVE BUDGET
 UBDSV1 SAVING "         STORAGE" ON UNIT  52 AT TIME STEP 12, STRESS PERIOD   6
 UBDSV2 SAVING "   CONSTANT HEAD" ON UNIT  52 AT TIME STEP 12, STRESS PERIOD   6
 UBDSV1 SAVING "FLOW RIGHT FACE " ON UNIT  52 AT TIME STEP 12, STRESS PERIOD   6
 UBDSV1 SAVING "FLOW FRONT FACE " ON UNIT  52 AT TIME STEP 12, STRESS PERIOD   6
 UBDSV4 SAVING "  STREAM LEAKAGE" ON UNIT  52 AT TIME STEP 12, STRESS PERIOD   6



 UBUDSV SAVING "           GW ET" ON UNIT 52 AT TIME STEP 12, STRESS PERIOD    6
 UBUDSV SAVING "    UZF RECHARGE" ON UNIT 52 AT TIME STEP 12, STRESS PERIOD    6
 UBUDSV SAVING " SURFACE LEAKAGE" ON UNIT 52 AT TIME STEP 12, STRESS PERIOD    6
 UBUDSV SAVING "       HORT+DUNN" ON UNIT 52 AT TIME STEP 12, STRESS PERIOD    6
 UBUDSV SAVING "  STORAGE CHANGE" ON UNIT 52 AT TIME STEP 12, STRESS PERIOD    6
 UBDSV4 SAVING "           AG WE" ON UNIT  52 AT TIME STEP 12, STRESS PERIOD   6

 HEAD WILL BE SAVED ON UNIT   51 AT END OF TIME STEP   12, STRESS PERIOD    6
 
 SOLVING FOR HEAD 

    ------------------------------------------------
       NWT REQUIRED            1 OUTER ITERATIONS 
       AND A TOTAL OF          2 INNER ITERATIONS.
    ------------------------------------------------

 OUTPUT CONTROL FOR STRESS PERIOD    6   TIME STEP   13
    SAVE HEAD FOR ALL LAYERS
    SAVE BUDGET
 UBDSV1 SAVING "         STORAGE" ON UNIT  52 AT TIME STEP 13, STRESS PERIOD   6
 UBDSV2 SAVING "   CONSTANT HEAD" ON UNIT  52 AT TIME STEP 13, STRESS PERIOD   6
 UBDSV1 SAVING "FLOW RIGHT FACE " ON UNIT  52 AT TIME STEP 13, STRESS PERIOD   6
 UBDSV1 SAVING "FLOW FRONT FACE " ON UNIT  52 AT TIME STEP 13, STRESS PERIOD   6
 UBDSV4 SAVING "  STREAM LEAKAGE" ON UNIT  52 AT TIME STEP 13, STRESS PERIOD   6



 UBUDSV SAVING "           GW ET" ON UNIT 52 AT TIME STEP 13, STRESS PERIOD    6
 UBUDSV SAVING "    UZF RECHARGE" ON UNIT 52 AT TIME STEP 13, STRESS PERIOD    6
 UBUDSV SAVING " SURFACE LEAKAGE" ON UNIT 52 AT TIME STEP 13, STRESS PERIOD    6
 UBUDSV SAVING "       HORT+DUNN" ON UNIT 52 AT TIME STEP 13, STRESS PERIOD    6
 UBUDSV SAVING "  STORAGE CHANGE" ON UNIT 52 AT TIME STEP 13, STRESS PERIOD    6
 UBDSV4 SAVING "           AG WE" ON UNIT  52 AT TIME STEP 13, STRESS PERIOD   6

 HEAD WILL BE SAVED ON UNIT   51 AT END OF TIME STEP   13, STRESS PERIOD    6
 
 SOLVING FOR HEAD 

    ------------------------------------------------
       NWT REQUIRED            1 OUTER ITERATIONS 
       AND A TOTAL OF          2 INNER ITERATIONS.
    ------------------------------------------------

 OUTPUT CONTROL FOR STRESS PERIOD    6   TIME STEP   14
    SAVE HEAD FOR ALL LAYERS
    SAVE BUDGET
 UBDSV1 SAVING "         STORAGE" ON UNIT  52 AT TIME STEP 14, STRESS PERIOD   6
 UBDSV2 SAVING "   CONSTANT HEAD" ON UNIT  52 AT TIME STEP 14, STRESS PERIOD   6
 UBDSV1 SAVING "FLOW RIGHT FACE " ON UNIT  52 AT TIME STEP 14, STRESS PERIOD   6
 UBDSV1 SAVING "FLOW FRONT FACE " ON UNIT  52 AT TIME STEP 14, STRESS PERIOD   6
 UBDSV4 SAVING "  STREAM LEAKAGE" ON UNIT  52 AT TIME STEP 14, STRESS PERIOD   6



 UBUDSV SAVING "           GW ET" ON UNIT 52 AT TIME STEP 14, STRESS PERIOD    6
 UBUDSV SAVING "    UZF RECHARGE" ON UNIT 52 AT TIME STEP 14, STRESS PERIOD    6
 UBUDSV SAVING " SURFACE LEAKAGE" ON UNIT 52 AT TIME STEP 14, STRESS PERIOD    6
 UBUDSV SAVING "       HORT+DUNN" ON UNIT 52 AT TIME STEP 14, STRESS PERIOD    6
 UBUDSV SAVING "  STORAGE CHANGE" ON UNIT 52 AT TIME STEP 14, STRESS PERIOD    6
 UBDSV4 SAVING "           AG WE" ON UNIT  52 AT TIME STEP 14, STRESS PERIOD   6

 HEAD WILL BE SAVED ON UNIT   51 AT END OF TIME STEP   14, STRESS PERIOD    6
 
 SOLVING FOR HEAD 

    ------------------------------------------------
       NWT REQUIRED            1 OUTER ITERATIONS 
       AND A TOTAL OF          2 INNER ITERATIONS.
    ------------------------------------------------

 OUTPUT CONTROL FOR STRESS PERIOD    6   TIME STEP   15
    SAVE HEAD FOR ALL LAYERS
    SAVE BUDGET
 UBDSV1 SAVING "         STORAGE" ON UNIT  52 AT TIME STEP 15, STRESS PERIOD   6
 UBDSV2 SAVING "   CONSTANT HEAD" ON UNIT  52 AT TIME STEP 15, STRESS PERIOD   6
 UBDSV1 SAVING "FLOW RIGHT FACE " ON UNIT  52 AT TIME STEP 15, STRESS PERIOD   6
 UBDSV1 SAVING "FLOW FRONT FACE " ON UNIT  52 AT TIME STEP 15, STRESS PERIOD   6
 UBDSV4 SAVING "  STREAM LEAKAGE" ON UNIT  52 AT TIME STEP 15, STRESS PERIOD   6



 UBUDSV SAVING "           GW ET" ON UNIT 52 AT TIME STEP 15, STRESS PERIOD    6
 UBUDSV SAVING "    UZF RECHARGE" ON UNIT 52 AT TIME STEP 15, STRESS PERIOD    6
 UBUDSV SAVING " SURFACE LEAKAGE" ON UNIT 52 AT TIME STEP 15, STRESS PERIOD    6
 UBUDSV SAVING "       HORT+DUNN" ON UNIT 52 AT TIME STEP 15, STRESS PERIOD    6
 UBUDSV SAVING "  STORAGE CHANGE" ON UNIT 52 AT TIME STEP 15, STRESS PERIOD    6
 UBDSV4 SAVING "           AG WE" ON UNIT  52 AT TIME STEP 15, STRESS PERIOD   6

 HEAD WILL BE SAVED ON UNIT   51 AT END OF TIME STEP   15, STRESS PERIOD    6
 
 SOLVING FOR HEAD 

    ------------------------------------------------
       NWT REQUIRED            1 OUTER ITERATIONS 
       AND A TOTAL OF          2 INNER ITERATIONS.
    ------------------------------------------------

 OUTPUT CONTROL FOR STRESS PERIOD    6   TIME STEP   16
    SAVE HEAD FOR ALL LAYERS
    SAVE BUDGET
 UBDSV1 SAVING "         STORAGE" ON UNIT  52 AT TIME STEP 16, STRESS PERIOD   6
 UBDSV2 SAVING "   CONSTANT HEAD" ON UNIT  52 AT TIME STEP 16, STRESS PERIOD   6
 UBDSV1 SAVING "FLOW RIGHT FACE " ON UNIT  52 AT TIME STEP 16, STRESS PERIOD   6
 UBDSV1 SAVING "FLOW FRONT FACE " ON UNIT  52 AT TIME STEP 16, STRESS PERIOD   6
 UBDSV4 SAVING "  STREAM LEAKAGE" ON UNIT  52 AT TIME STEP 16, STRESS PERIOD   6



 UBUDSV SAVING "           GW ET" ON UNIT 52 AT TIME STEP 16, STRESS PERIOD    6
 UBUDSV SAVING "    UZF RECHARGE" ON UNIT 52 AT TIME STEP 16, STRESS PERIOD    6
 UBUDSV SAVING " SURFACE LEAKAGE" ON UNIT 52 AT TIME STEP 16, STRESS PERIOD    6
 UBUDSV SAVING "       HORT+DUNN" ON UNIT 52 AT TIME STEP 16, STRESS PERIOD    6
 UBUDSV SAVING "  STORAGE CHANGE" ON UNIT 52 AT TIME STEP 16, STRESS PERIOD    6
 UBDSV4 SAVING "           AG WE" ON UNIT  52 AT TIME STEP 16, STRESS PERIOD   6

 HEAD WILL BE SAVED ON UNIT   51 AT END OF TIME STEP   16, STRESS PERIOD    6
 
 SOLVING FOR HEAD 

    ------------------------------------------------
       NWT REQUIRED            1 OUTER ITERATIONS 
       AND A TOTAL OF          1 INNER ITERATIONS.
    ------------------------------------------------

 OUTPUT CONTROL FOR STRESS PERIOD    6   TIME STEP   17
    SAVE HEAD FOR ALL LAYERS
    SAVE BUDGET
 UBDSV1 SAVING "         STORAGE" ON UNIT  52 AT TIME STEP 17, STRESS PERIOD   6
 UBDSV2 SAVING "   CONSTANT HEAD" ON UNIT  52 AT TIME STEP 17, STRESS PERIOD   6
 UBDSV1 SAVING "FLOW RIGHT FACE " ON UNIT  52 AT TIME STEP 17, STRESS PERIOD   6
 UBDSV1 SAVING "FLOW FRONT FACE " ON UNIT  52 AT TIME STEP 17, STRESS PERIOD   6
 UBDSV4 SAVING "  STREAM LEAKAGE" ON UNIT  52 AT TIME STEP 17, STRESS PERIOD   6



 UBUDSV SAVING "           GW ET" ON UNIT 52 AT TIME STEP 17, STRESS PERIOD    6
 UBUDSV SAVING "    UZF RECHARGE" ON UNIT 52 AT TIME STEP 17, STRESS PERIOD    6
 UBUDSV SAVING " SURFACE LEAKAGE" ON UNIT 52 AT TIME STEP 17, STRESS PERIOD    6
 UBUDSV SAVING "       HORT+DUNN" ON UNIT 52 AT TIME STEP 17, STRESS PERIOD    6
 UBUDSV SAVING "  STORAGE CHANGE" ON UNIT 52 AT TIME STEP 17, STRESS PERIOD    6
 UBDSV4 SAVING "           AG WE" ON UNIT  52 AT TIME STEP 17, STRESS PERIOD   6

 HEAD WILL BE SAVED ON UNIT   51 AT END OF TIME STEP   17, STRESS PERIOD    6
 
 SOLVING FOR HEAD 

    ------------------------------------------------
       NWT REQUIRED            1 OUTER ITERATIONS 
       AND A TOTAL OF          1 INNER ITERATIONS.
    ------------------------------------------------

 OUTPUT CONTROL FOR STRESS PERIOD    6   TIME STEP   18
    SAVE HEAD FOR ALL LAYERS
    SAVE BUDGET
 UBDSV1 SAVING "         STORAGE" ON UNIT  52 AT TIME STEP 18, STRESS PERIOD   6
 UBDSV2 SAVING "   CONSTANT HEAD" ON UNIT  52 AT TIME STEP 18, STRESS PERIOD   6
 UBDSV1 SAVING "FLOW RIGHT FACE " ON UNIT  52 AT TIME STEP 18, STRESS PERIOD   6
 UBDSV1 SAVING "FLOW FRONT FACE " ON UNIT  52 AT TIME STEP 18, STRESS PERIOD   6
 UBDSV4 SAVING "  STREAM LEAKAGE" ON UNIT  52 AT TIME STEP 18, STRESS PERIOD   6



 UBUDSV SAVING "           GW ET" ON UNIT 52 AT TIME STEP 18, STRESS PERIOD    6
 UBUDSV SAVING "    UZF RECHARGE" ON UNIT 52 AT TIME STEP 18, STRESS PERIOD    6
 UBUDSV SAVING " SURFACE LEAKAGE" ON UNIT 52 AT TIME STEP 18, STRESS PERIOD    6
 UBUDSV SAVING "       HORT+DUNN" ON UNIT 52 AT TIME STEP 18, STRESS PERIOD    6
 UBUDSV SAVING "  STORAGE CHANGE" ON UNIT 52 AT TIME STEP 18, STRESS PERIOD    6
 UBDSV4 SAVING "           AG WE" ON UNIT  52 AT TIME STEP 18, STRESS PERIOD   6

 HEAD WILL BE SAVED ON UNIT   51 AT END OF TIME STEP   18, STRESS PERIOD    6
 
 SOLVING FOR HEAD 

    ------------------------------------------------
       NWT REQUIRED            1 OUTER ITERATIONS 
       AND A TOTAL OF          1 INNER ITERATIONS.
    ------------------------------------------------

 OUTPUT CONTROL FOR STRESS PERIOD    6   TIME STEP   19
    SAVE HEAD FOR ALL LAYERS
    SAVE BUDGET
 UBDSV1 SAVING "         STORAGE" ON UNIT  52 AT TIME STEP 19, STRESS PERIOD   6
 UBDSV2 SAVING "   CONSTANT HEAD" ON UNIT  52 AT TIME STEP 19, STRESS PERIOD   6
 UBDSV1 SAVING "FLOW RIGHT FACE " ON UNIT  52 AT TIME STEP 19, STRESS PERIOD   6
 UBDSV1 SAVING "FLOW FRONT FACE " ON UNIT  52 AT TIME STEP 19, STRESS PERIOD   6
 UBDSV4 SAVING "  STREAM LEAKAGE" ON UNIT  52 AT TIME STEP 19, STRESS PERIOD   6



 UBUDSV SAVING "           GW ET" ON UNIT 52 AT TIME STEP 19, STRESS PERIOD    6
 UBUDSV SAVING "    UZF RECHARGE" ON UNIT 52 AT TIME STEP 19, STRESS PERIOD    6
 UBUDSV SAVING " SURFACE LEAKAGE" ON UNIT 52 AT TIME STEP 19, STRESS PERIOD    6
 UBUDSV SAVING "       HORT+DUNN" ON UNIT 52 AT TIME STEP 19, STRESS PERIOD    6
 UBUDSV SAVING "  STORAGE CHANGE" ON UNIT 52 AT TIME STEP 19, STRESS PERIOD    6
 UBDSV4 SAVING "           AG WE" ON UNIT  52 AT TIME STEP 19, STRESS PERIOD   6

 HEAD WILL BE SAVED ON UNIT   51 AT END OF TIME STEP   19, STRESS PERIOD    6
 
 SOLVING FOR HEAD 

    ------------------------------------------------
       NWT REQUIRED            1 OUTER ITERATIONS 
       AND A TOTAL OF          1 INNER ITERATIONS.
    ------------------------------------------------

 OUTPUT CONTROL FOR STRESS PERIOD    6   TIME STEP   20
    SAVE HEAD FOR ALL LAYERS
    SAVE BUDGET
 UBDSV1 SAVING "         STORAGE" ON UNIT  52 AT TIME STEP 20, STRESS PERIOD   6
 UBDSV2 SAVING "   CONSTANT HEAD" ON UNIT  52 AT TIME STEP 20, STRESS PERIOD   6
 UBDSV1 SAVING "FLOW RIGHT FACE " ON UNIT  52 AT TIME STEP 20, STRESS PERIOD   6
 UBDSV1 SAVING "FLOW FRONT FACE " ON UNIT  52 AT TIME STEP 20, STRESS PERIOD   6
 UBDSV4 SAVING "  STREAM LEAKAGE" ON UNIT  52 AT TIME STEP 20, STRESS PERIOD   6



 UBUDSV SAVING "           GW ET" ON UNIT 52 AT TIME STEP 20, STRESS PERIOD    6
 UBUDSV SAVING "    UZF RECHARGE" ON UNIT 52 AT TIME STEP 20, STRESS PERIOD    6
 UBUDSV SAVING " SURFACE LEAKAGE" ON UNIT 52 AT TIME STEP 20, STRESS PERIOD    6
 UBUDSV SAVING "       HORT+DUNN" ON UNIT 52 AT TIME STEP 20, STRESS PERIOD    6
 UBUDSV SAVING "  STORAGE CHANGE" ON UNIT 52 AT TIME STEP 20, STRESS PERIOD    6
 UBDSV4 SAVING "           AG WE" ON UNIT  52 AT TIME STEP 20, STRESS PERIOD   6

 HEAD WILL BE SAVED ON UNIT   51 AT END OF TIME STEP   20, STRESS PERIOD    6
 
 SOLVING FOR HEAD 

    ------------------------------------------------
       NWT REQUIRED            1 OUTER ITERATIONS 
       AND A TOTAL OF          1 INNER ITERATIONS.
    ------------------------------------------------

 OUTPUT CONTROL FOR STRESS PERIOD    6   TIME STEP   21
    SAVE HEAD FOR ALL LAYERS
    SAVE BUDGET
 UBDSV1 SAVING "         STORAGE" ON UNIT  52 AT TIME STEP 21, STRESS PERIOD   6
 UBDSV2 SAVING "   CONSTANT HEAD" ON UNIT  52 AT TIME STEP 21, STRESS PERIOD   6
 UBDSV1 SAVING "FLOW RIGHT FACE " ON UNIT  52 AT TIME STEP 21, STRESS PERIOD   6
 UBDSV1 SAVING "FLOW FRONT FACE " ON UNIT  52 AT TIME STEP 21, STRESS PERIOD   6
 UBDSV4 SAVING "  STREAM LEAKAGE" ON UNIT  52 AT TIME STEP 21, STRESS PERIOD   6



 UBUDSV SAVING "           GW ET" ON UNIT 52 AT TIME STEP 21, STRESS PERIOD    6
 UBUDSV SAVING "    UZF RECHARGE" ON UNIT 52 AT TIME STEP 21, STRESS PERIOD    6
 UBUDSV SAVING " SURFACE LEAKAGE" ON UNIT 52 AT TIME STEP 21, STRESS PERIOD    6
 UBUDSV SAVING "       HORT+DUNN" ON UNIT 52 AT TIME STEP 21, STRESS PERIOD    6
 UBUDSV SAVING "  STORAGE CHANGE" ON UNIT 52 AT TIME STEP 21, STRESS PERIOD    6
 UBDSV4 SAVING "           AG WE" ON UNIT  52 AT TIME STEP 21, STRESS PERIOD   6

 HEAD WILL BE SAVED ON UNIT   51 AT END OF TIME STEP   21, STRESS PERIOD    6
 
 SOLVING FOR HEAD 

    ------------------------------------------------
       NWT REQUIRED            1 OUTER ITERATIONS 
       AND A TOTAL OF          1 INNER ITERATIONS.
    ------------------------------------------------

 OUTPUT CONTROL FOR STRESS PERIOD    6   TIME STEP   22
    SAVE HEAD FOR ALL LAYERS
    SAVE BUDGET
 UBDSV1 SAVING "         STORAGE" ON UNIT  52 AT TIME STEP 22, STRESS PERIOD   6
 UBDSV2 SAVING "   CONSTANT HEAD" ON UNIT  52 AT TIME STEP 22, STRESS PERIOD   6
 UBDSV1 SAVING "FLOW RIGHT FACE " ON UNIT  52 AT TIME STEP 22, STRESS PERIOD   6
 UBDSV1 SAVING "FLOW FRONT FACE " ON UNIT  52 AT TIME STEP 22, STRESS PERIOD   6
 UBDSV4 SAVING "  STREAM LEAKAGE" ON UNIT  52 AT TIME STEP 22, STRESS PERIOD   6



 UBUDSV SAVING "           GW ET" ON UNIT 52 AT TIME STEP 22, STRESS PERIOD    6
 UBUDSV SAVING "    UZF RECHARGE" ON UNIT 52 AT TIME STEP 22, STRESS PERIOD    6
 UBUDSV SAVING " SURFACE LEAKAGE" ON UNIT 52 AT TIME STEP 22, STRESS PERIOD    6
 UBUDSV SAVING "       HORT+DUNN" ON UNIT 52 AT TIME STEP 22, STRESS PERIOD    6
 UBUDSV SAVING "  STORAGE CHANGE" ON UNIT 52 AT TIME STEP 22, STRESS PERIOD    6
 UBDSV4 SAVING "           AG WE" ON UNIT  52 AT TIME STEP 22, STRESS PERIOD   6

 HEAD WILL BE SAVED ON UNIT   51 AT END OF TIME STEP   22, STRESS PERIOD    6
 
 SOLVING FOR HEAD 

    ------------------------------------------------
       NWT REQUIRED            1 OUTER ITERATIONS 
       AND A TOTAL OF          1 INNER ITERATIONS.
    ------------------------------------------------

 OUTPUT CONTROL FOR STRESS PERIOD    6   TIME STEP   23
    SAVE HEAD FOR ALL LAYERS
    SAVE BUDGET
 UBDSV1 SAVING "         STORAGE" ON UNIT  52 AT TIME STEP 23, STRESS PERIOD   6
 UBDSV2 SAVING "   CONSTANT HEAD" ON UNIT  52 AT TIME STEP 23, STRESS PERIOD   6
 UBDSV1 SAVING "FLOW RIGHT FACE " ON UNIT  52 AT TIME STEP 23, STRESS PERIOD   6
 UBDSV1 SAVING "FLOW FRONT FACE " ON UNIT  52 AT TIME STEP 23, STRESS PERIOD   6
 UBDSV4 SAVING "  STREAM LEAKAGE" ON UNIT  52 AT TIME STEP 23, STRESS PERIOD   6



 UBUDSV SAVING "           GW ET" ON UNIT 52 AT TIME STEP 23, STRESS PERIOD    6
 UBUDSV SAVING "    UZF RECHARGE" ON UNIT 52 AT TIME STEP 23, STRESS PERIOD    6
 UBUDSV SAVING " SURFACE LEAKAGE" ON UNIT 52 AT TIME STEP 23, STRESS PERIOD    6
 UBUDSV SAVING "       HORT+DUNN" ON UNIT 52 AT TIME STEP 23, STRESS PERIOD    6
 UBUDSV SAVING "  STORAGE CHANGE" ON UNIT 52 AT TIME STEP 23, STRESS PERIOD    6
 UBDSV4 SAVING "           AG WE" ON UNIT  52 AT TIME STEP 23, STRESS PERIOD   6

 HEAD WILL BE SAVED ON UNIT   51 AT END OF TIME STEP   23, STRESS PERIOD    6
 
 SOLVING FOR HEAD 

    ------------------------------------------------
       NWT REQUIRED            1 OUTER ITERATIONS 
       AND A TOTAL OF          1 INNER ITERATIONS.
    ------------------------------------------------

 OUTPUT CONTROL FOR STRESS PERIOD    6   TIME STEP   24
    SAVE HEAD FOR ALL LAYERS
    SAVE BUDGET
 UBDSV1 SAVING "         STORAGE" ON UNIT  52 AT TIME STEP 24, STRESS PERIOD   6
 UBDSV2 SAVING "   CONSTANT HEAD" ON UNIT  52 AT TIME STEP 24, STRESS PERIOD   6
 UBDSV1 SAVING "FLOW RIGHT FACE " ON UNIT  52 AT TIME STEP 24, STRESS PERIOD   6
 UBDSV1 SAVING "FLOW FRONT FACE " ON UNIT  52 AT TIME STEP 24, STRESS PERIOD   6
 UBDSV4 SAVING "  STREAM LEAKAGE" ON UNIT  52 AT TIME STEP 24, STRESS PERIOD   6



 UBUDSV SAVING "           GW ET" ON UNIT 52 AT TIME STEP 24, STRESS PERIOD    6
 UBUDSV SAVING "    UZF RECHARGE" ON UNIT 52 AT TIME STEP 24, STRESS PERIOD    6
 UBUDSV SAVING " SURFACE LEAKAGE" ON UNIT 52 AT TIME STEP 24, STRESS PERIOD    6
 UBUDSV SAVING "       HORT+DUNN" ON UNIT 52 AT TIME STEP 24, STRESS PERIOD    6
 UBUDSV SAVING "  STORAGE CHANGE" ON UNIT 52 AT TIME STEP 24, STRESS PERIOD    6
 UBDSV4 SAVING "           AG WE" ON UNIT  52 AT TIME STEP 24, STRESS PERIOD   6

 HEAD WILL BE SAVED ON UNIT   51 AT END OF TIME STEP   24, STRESS PERIOD    6
 
 SOLVING FOR HEAD 

    ------------------------------------------------
       NWT REQUIRED            1 OUTER ITERATIONS 
       AND A TOTAL OF          1 INNER ITERATIONS.
    ------------------------------------------------

 OUTPUT CONTROL FOR STRESS PERIOD    6   TIME STEP   25
    SAVE HEAD FOR ALL LAYERS
    SAVE BUDGET
 UBDSV1 SAVING "         STORAGE" ON UNIT  52 AT TIME STEP 25, STRESS PERIOD   6
 UBDSV2 SAVING "   CONSTANT HEAD" ON UNIT  52 AT TIME STEP 25, STRESS PERIOD   6
 UBDSV1 SAVING "FLOW RIGHT FACE " ON UNIT  52 AT TIME STEP 25, STRESS PERIOD   6
 UBDSV1 SAVING "FLOW FRONT FACE " ON UNIT  52 AT TIME STEP 25, STRESS PERIOD   6
 UBDSV4 SAVING "  STREAM LEAKAGE" ON UNIT  52 AT TIME STEP 25, STRESS PERIOD   6



 UBUDSV SAVING "           GW ET" ON UNIT 52 AT TIME STEP 25, STRESS PERIOD    6
 UBUDSV SAVING "    UZF RECHARGE" ON UNIT 52 AT TIME STEP 25, STRESS PERIOD    6
 UBUDSV SAVING " SURFACE LEAKAGE" ON UNIT 52 AT TIME STEP 25, STRESS PERIOD    6
 UBUDSV SAVING "       HORT+DUNN" ON UNIT 52 AT TIME STEP 25, STRESS PERIOD    6
 UBUDSV SAVING "  STORAGE CHANGE" ON UNIT 52 AT TIME STEP 25, STRESS PERIOD    6
 UBDSV4 SAVING "           AG WE" ON UNIT  52 AT TIME STEP 25, STRESS PERIOD   6

 HEAD WILL BE SAVED ON UNIT   51 AT END OF TIME STEP   25, STRESS PERIOD    6
 
 SOLVING FOR HEAD 

    ------------------------------------------------
       NWT REQUIRED            1 OUTER ITERATIONS 
       AND A TOTAL OF          1 INNER ITERATIONS.
    ------------------------------------------------

 OUTPUT CONTROL FOR STRESS PERIOD    6   TIME STEP   26
    SAVE HEAD FOR ALL LAYERS
    SAVE BUDGET
 UBDSV1 SAVING "         STORAGE" ON UNIT  52 AT TIME STEP 26, STRESS PERIOD   6
 UBDSV2 SAVING "   CONSTANT HEAD" ON UNIT  52 AT TIME STEP 26, STRESS PERIOD   6
 UBDSV1 SAVING "FLOW RIGHT FACE " ON UNIT  52 AT TIME STEP 26, STRESS PERIOD   6
 UBDSV1 SAVING "FLOW FRONT FACE " ON UNIT  52 AT TIME STEP 26, STRESS PERIOD   6
 UBDSV4 SAVING "  STREAM LEAKAGE" ON UNIT  52 AT TIME STEP 26, STRESS PERIOD   6



 UBUDSV SAVING "           GW ET" ON UNIT 52 AT TIME STEP 26, STRESS PERIOD    6
 UBUDSV SAVING "    UZF RECHARGE" ON UNIT 52 AT TIME STEP 26, STRESS PERIOD    6
 UBUDSV SAVING " SURFACE LEAKAGE" ON UNIT 52 AT TIME STEP 26, STRESS PERIOD    6
 UBUDSV SAVING "       HORT+DUNN" ON UNIT 52 AT TIME STEP 26, STRESS PERIOD    6
 UBUDSV SAVING "  STORAGE CHANGE" ON UNIT 52 AT TIME STEP 26, STRESS PERIOD    6
 UBDSV4 SAVING "           AG WE" ON UNIT  52 AT TIME STEP 26, STRESS PERIOD   6

 HEAD WILL BE SAVED ON UNIT   51 AT END OF TIME STEP   26, STRESS PERIOD    6
 
 SOLVING FOR HEAD 

    ------------------------------------------------
       NWT REQUIRED            1 OUTER ITERATIONS 
       AND A TOTAL OF          1 INNER ITERATIONS.
    ------------------------------------------------

 OUTPUT CONTROL FOR STRESS PERIOD    6   TIME STEP   27
    SAVE HEAD FOR ALL LAYERS
    SAVE BUDGET
 UBDSV1 SAVING "         STORAGE" ON UNIT  52 AT TIME STEP 27, STRESS PERIOD   6
 UBDSV2 SAVING "   CONSTANT HEAD" ON UNIT  52 AT TIME STEP 27, STRESS PERIOD   6
 UBDSV1 SAVING "FLOW RIGHT FACE " ON UNIT  52 AT TIME STEP 27, STRESS PERIOD   6
 UBDSV1 SAVING "FLOW FRONT FACE " ON UNIT  52 AT TIME STEP 27, STRESS PERIOD   6
 UBDSV4 SAVING "  STREAM LEAKAGE" ON UNIT  52 AT TIME STEP 27, STRESS PERIOD   6



 UBUDSV SAVING "           GW ET" ON UNIT 52 AT TIME STEP 27, STRESS PERIOD    6
 UBUDSV SAVING "    UZF RECHARGE" ON UNIT 52 AT TIME STEP 27, STRESS PERIOD    6
 UBUDSV SAVING " SURFACE LEAKAGE" ON UNIT 52 AT TIME STEP 27, STRESS PERIOD    6
 UBUDSV SAVING "       HORT+DUNN" ON UNIT 52 AT TIME STEP 27, STRESS PERIOD    6
 UBUDSV SAVING "  STORAGE CHANGE" ON UNIT 52 AT TIME STEP 27, STRESS PERIOD    6
 UBDSV4 SAVING "           AG WE" ON UNIT  52 AT TIME STEP 27, STRESS PERIOD   6

 HEAD WILL BE SAVED ON UNIT   51 AT END OF TIME STEP   27, STRESS PERIOD    6
 
 SOLVING FOR HEAD 

    ------------------------------------------------
       NWT REQUIRED            1 OUTER ITERATIONS 
       AND A TOTAL OF          2 INNER ITERATIONS.
    ------------------------------------------------

 OUTPUT CONTROL FOR STRESS PERIOD    6   TIME STEP   28
    SAVE HEAD FOR ALL LAYERS
    SAVE BUDGET
 UBDSV1 SAVING "         STORAGE" ON UNIT  52 AT TIME STEP 28, STRESS PERIOD   6
 UBDSV2 SAVING "   CONSTANT HEAD" ON UNIT  52 AT TIME STEP 28, STRESS PERIOD   6
 UBDSV1 SAVING "FLOW RIGHT FACE " ON UNIT  52 AT TIME STEP 28, STRESS PERIOD   6
 UBDSV1 SAVING "FLOW FRONT FACE " ON UNIT  52 AT TIME STEP 28, STRESS PERIOD   6
 UBDSV4 SAVING "  STREAM LEAKAGE" ON UNIT  52 AT TIME STEP 28, STRESS PERIOD   6



 UBUDSV SAVING "           GW ET" ON UNIT 52 AT TIME STEP 28, STRESS PERIOD    6
 UBUDSV SAVING "    UZF RECHARGE" ON UNIT 52 AT TIME STEP 28, STRESS PERIOD    6
 UBUDSV SAVING " SURFACE LEAKAGE" ON UNIT 52 AT TIME STEP 28, STRESS PERIOD    6
 UBUDSV SAVING "       HORT+DUNN" ON UNIT 52 AT TIME STEP 28, STRESS PERIOD    6
 UBUDSV SAVING "  STORAGE CHANGE" ON UNIT 52 AT TIME STEP 28, STRESS PERIOD    6
 UBDSV4 SAVING "           AG WE" ON UNIT  52 AT TIME STEP 28, STRESS PERIOD   6

 HEAD WILL BE SAVED ON UNIT   51 AT END OF TIME STEP   28, STRESS PERIOD    6
 
 SOLVING FOR HEAD 

    ------------------------------------------------
       NWT REQUIRED            1 OUTER ITERATIONS 
       AND A TOTAL OF          2 INNER ITERATIONS.
    ------------------------------------------------

 OUTPUT CONTROL FOR STRESS PERIOD    6   TIME STEP   29
    SAVE HEAD FOR ALL LAYERS
    SAVE BUDGET
 UBDSV1 SAVING "         STORAGE" ON UNIT  52 AT TIME STEP 29, STRESS PERIOD   6
 UBDSV2 SAVING "   CONSTANT HEAD" ON UNIT  52 AT TIME STEP 29, STRESS PERIOD   6
 UBDSV1 SAVING "FLOW RIGHT FACE " ON UNIT  52 AT TIME STEP 29, STRESS PERIOD   6
 UBDSV1 SAVING "FLOW FRONT FACE " ON UNIT  52 AT TIME STEP 29, STRESS PERIOD   6
 UBDSV4 SAVING "  STREAM LEAKAGE" ON UNIT  52 AT TIME STEP 29, STRESS PERIOD   6



 UBUDSV SAVING "           GW ET" ON UNIT 52 AT TIME STEP 29, STRESS PERIOD    6
 UBUDSV SAVING "    UZF RECHARGE" ON UNIT 52 AT TIME STEP 29, STRESS PERIOD    6
 UBUDSV SAVING " SURFACE LEAKAGE" ON UNIT 52 AT TIME STEP 29, STRESS PERIOD    6
 UBUDSV SAVING "       HORT+DUNN" ON UNIT 52 AT TIME STEP 29, STRESS PERIOD    6
 UBUDSV SAVING "  STORAGE CHANGE" ON UNIT 52 AT TIME STEP 29, STRESS PERIOD    6
 UBDSV4 SAVING "           AG WE" ON UNIT  52 AT TIME STEP 29, STRESS PERIOD   6

 HEAD WILL BE SAVED ON UNIT   51 AT END OF TIME STEP   29, STRESS PERIOD    6
 
 SOLVING FOR HEAD 

    ------------------------------------------------
       NWT REQUIRED            1 OUTER ITERATIONS 
       AND A TOTAL OF          2 INNER ITERATIONS.
    ------------------------------------------------

 OUTPUT CONTROL FOR STRESS PERIOD    6   TIME STEP   30
    SAVE HEAD FOR ALL LAYERS
    SAVE BUDGET
 UBDSV1 SAVING "         STORAGE" ON UNIT  52 AT TIME STEP 30, STRESS PERIOD   6
 UBDSV2 SAVING "   CONSTANT HEAD" ON UNIT  52 AT TIME STEP 30, STRESS PERIOD   6
 UBDSV1 SAVING "FLOW RIGHT FACE " ON UNIT  52 AT TIME STEP 30, STRESS PERIOD   6
 UBDSV1 SAVING "FLOW FRONT FACE " ON UNIT  52 AT TIME STEP 30, STRESS PERIOD   6
 UBDSV4 SAVING "  STREAM LEAKAGE" ON UNIT  52 AT TIME STEP 30, STRESS PERIOD   6



 UBUDSV SAVING "           GW ET" ON UNIT 52 AT TIME STEP 30, STRESS PERIOD    6
 UBUDSV SAVING "    UZF RECHARGE" ON UNIT 52 AT TIME STEP 30, STRESS PERIOD    6
 UBUDSV SAVING " SURFACE LEAKAGE" ON UNIT 52 AT TIME STEP 30, STRESS PERIOD    6
 UBUDSV SAVING "       HORT+DUNN" ON UNIT 52 AT TIME STEP 30, STRESS PERIOD    6
 UBUDSV SAVING "  STORAGE CHANGE" ON UNIT 52 AT TIME STEP 30, STRESS PERIOD    6


UNSATURATED ZONE PACKAGE VOLUMETRIC BUDGET FOR  TIME STEP    30 STRESS PERIOD    6
  ------------------------------------------------------------------------------



     CUMULATIVE VOLUMES      L**3       RATES FOR THIS TIME STEP      L**3/T
     ------------------                 ------------------------

           IN:                                      IN:
           ---                                      ---
        INFILTRATION =      121153.3508          INFILTRATION =         124.2302

          OUT:                                     OUT:
          ----                                     ----
              UZF ET =      146501.2437                UZF ET =         125.0239
        UZF RECHARGE =        8807.0288          UZF RECHARGE =          17.3415

            IN - OUT =      -34154.9217              IN - OUT =         -18.1352

          STORAGE:                                 STORAGE:
          --------                                 --------
      STORAGE CHANGE =      -34155.1933        STORAGE CHANGE =         -18.1352

 PERCENT DISCREPANCY IS DIFFERENCE BETWEEN IN-OUT MINUS CHANGE IN STORAGE
 DIVIDED BY THE AVERAGE OF IN AND OUT TIMES 100

 PERCENT DISCREPANCY =           0.00     PERCENT DISCREPANCY =           0.00






 UBDSV4 SAVING "           AG WE" ON UNIT  52 AT TIME STEP 30, STRESS PERIOD   6
1
  VOLUMETRIC BUDGET FOR AGRICULTURAL FIELDS AT TIME STEP   30, STRESS PERIOD   6
  ------------------------------------------------------------------------------

     CUMULATIVE VOLUMES      L**3       RATES FOR THIS TIME STEP      L**3/T
     ------------------                 ------------------------

           IN:                                      IN:
           ---                                      ---
               AG WELLS  =        1508.0967                 AG WELLS  =          25.0856
      DIVERSION SEGMENTS =        2014.8610        DIVERSION SEGMENTS =          30.0000
           GW IRRIGATION =           0.0000             GW IRRIGATION =           0.0000
           SW IRRIGATION =           0.0000             SW IRRIGATION =           0.0000
        SYSTEM LOSSES GW =           0.0000          SYSTEM LOSSES GW =           0.0000
        SYSTEM LOSSES SW =           0.0000          SYSTEM LOSSES SW =           0.0000

                TOTAL IN =        3522.9575                  TOTAL IN =          55.0856

          OUT:                                     OUT:
          ----                                     ----
               AG WELLS  =           0.0000                 AG WELLS  =           0.0000
      DIVERSION SEGMENTS =           0.0000        DIVERSION SEGMENTS =           0.0000
           GW IRRIGATION =        1508.0967             GW IRRIGATION =          25.0856
           SW IRRIGATION =        2014.8610             SW IRRIGATION =          30.0000
        SYSTEM LOSSES GW =           0.0000          SYSTEM LOSSES GW =           0.0000
        SYSTEM LOSSES SW =           0.0000          SYSTEM LOSSES SW =           0.0000

               TOTAL OUT =        3522.9575                 TOTAL OUT =          55.0856

                IN - OUT =           0.0000                  IN - OUT =           0.0000

     PERCENT DISCREPANCY =           0.00         PERCENT DISCREPANCY =           0.00




 HEAD WILL BE SAVED ON UNIT   51 AT END OF TIME STEP   30, STRESS PERIOD    6
1
  VOLUMETRIC BUDGET FOR ENTIRE MODEL AT END OF TIME STEP   30, STRESS PERIOD   6
  ------------------------------------------------------------------------------

     CUMULATIVE VOLUMES      L**3       RATES FOR THIS TIME STEP      L**3/T
     ------------------                 ------------------------

           IN:                                      IN:
           ---                                      ---
             STORAGE     =         239.2340               STORAGE     =           7.1124
       CONSTANT HEAD     =           0.0000         CONSTANT HEAD     =           0.0000
      STREAM LEAKAGE     =          13.7602        STREAM LEAKAGE     =       7.6023E-02
        UZF RECHARGE     =        8807.0312          UZF RECHARGE     =          17.3415
               GW ET     =           0.0000                 GW ET     =           0.0000
     SURFACE LEAKAGE     =           0.0000       SURFACE LEAKAGE     =           0.0000
           AG WELLS      =           0.0000             AG WELLS      =           0.0000

                TOTAL IN =        9060.0254                  TOTAL IN =          24.5299

          OUT:                                     OUT:
          ----                                     ----
             STORAGE     =        6732.3418               STORAGE     =       5.9889E-02
       CONSTANT HEAD     =           0.0000         CONSTANT HEAD     =           0.0000
      STREAM LEAKAGE     =           0.0000        STREAM LEAKAGE     =           0.0000
        UZF RECHARGE     =           0.0000          UZF RECHARGE     =           0.0000
               GW ET     =           0.0000                 GW ET     =           0.0000
     SURFACE LEAKAGE     =           0.0000       SURFACE LEAKAGE     =           0.0000
           AG WELLS      =        1508.0967             AG WELLS      =          25.0856

               TOTAL OUT =        8240.4385                 TOTAL OUT =          25.1455

                IN - OUT =         819.5869                  IN - OUT =          -0.6156

     PERCENT DISCREPANCY =           9.47         PERCENT DISCREPANCY =          -2.48






         TIME SUMMARY AT END OF TIME STEP   30 IN STRESS PERIOD    6
                    SECONDS     MINUTES      HOURS       DAYS        YEARS
                    -----------------------------------------------------------
   TIME STEP LENGTH  86400.      1440.0      24.000      1.0000     2.73785E-03
 STRESS PERIOD TIME 2.59200E+06  43200.      720.00      30.000     8.21355E-02
         TOTAL TIME 1.56384E+07 2.60640E+05  4344.0      181.00     0.49555    
1
1
                            STRESS PERIOD NO.    7, LENGTH =   31.00000    
                            -----------------------------------------------

                              NUMBER OF TIME STEPS =    31

                               MULTIPLIER FOR DELT =     1.000

                            INITIAL TIME STEP SIZE =   1.000000    



 CLASSIFICATION & COUNT OF STREAM SEGMENTS BASED ON SOURCE OF INFLOW:

                HEADWATER     DIVERSION     RECEIVES TRIBUTARY FLOW
                ---------     ---------     -----------------------
                     1              2               9



                    INPUT DATA FOR EACH STREAM SEGMENT
 ---------------------------------------------------------------------------------------------

 SEGMENT    SEG.     INFLOW   OVERLAND   STREAM    STREAM   ICALC  OUTFLOW  DIVERSION PRIORITY
    NO.    LENGTH     RATE     RUNOFF      ET       PPT.    METH.  TO SEG.  FROM SEG.    NO.

      1  1.000E+02 5.000E+01 0.000E+00 0.000E+00 0.000E+00    1        2        0        0
      2  1.000E+02 0.000E+00 0.000E+00 0.000E+00 0.000E+00    1        3        0        0
      3  1.000E+02 0.000E+00 0.000E+00 0.000E+00 0.000E+00    1        4        0        0
      4  1.000E+02 0.000E+00 0.000E+00 0.000E+00 0.000E+00    1        5        0        0
      5  1.000E+02 0.000E+00 0.000E+00 0.000E+00 0.000E+00    1        6        0        0
      6  1.000E+02 0.000E+00 0.000E+00 0.000E+00 0.000E+00    1        7        0        0
      7  1.000E+02 0.000E+00 0.000E+00 0.000E+00 0.000E+00    1        8        0        0
      8  1.000E+02 0.000E+00 0.000E+00 0.000E+00 0.000E+00    1        9        0        0
      9  1.000E+02 0.000E+00 0.000E+00 0.000E+00 0.000E+00    1       10        0        0
     10  1.000E+02 0.000E+00 0.000E+00 0.000E+00 0.000E+00    1        0        0        0
     11  1.000E+02 2.000E+01 0.000E+00 0.000E+00 0.000E+00    1        0        3        0
     12  1.000E+02 1.000E+01 0.000E+00 0.000E+00 0.000E+00    1        0        5        0


         STREAMBED PROPERTIES AND STREAM DIMENSIONS

 SEGMENT     BED HYD. COND.      BED THICKNESS     ELEV.-TOP OF BED     WIDTH OF STREAM     DEPTH OF STREAM    STREAM ROUGHNESS
    No.     UPPER     LOWER     UPPER     LOWER     UPPER     LOWER     UPPER     LOWER     UPPER     LOWER   CHANNEL      BANK

     1  1.500E-05 1.500E-05 5.000E-01 5.000E-01 9.900E+01 9.898E+01 5.000E+00 5.000E+00                     3.000E-02
     2  1.500E-05 1.500E-05 5.000E-01 5.000E-01 9.898E+01 9.896E+01 5.000E+00 5.000E+00                     3.000E-02
     3  1.500E-05 1.500E-05 5.000E-01 5.000E-01 9.896E+01 9.894E+01 5.000E+00 5.000E+00                     3.000E-02
     4  1.500E-05 1.500E-05 5.000E-01 5.000E-01 9.894E+01 9.892E+01 5.000E+00 5.000E+00                     3.000E-02
     5  1.500E-05 1.500E-05 5.000E-01 5.000E-01 9.892E+01 9.890E+01 5.000E+00 5.000E+00                     3.000E-02
     6  1.500E-05 1.500E-05 5.000E-01 5.000E-01 9.890E+01 9.888E+01 5.000E+00 5.000E+00                     3.000E-02
     7  1.500E-05 1.500E-05 5.000E-01 5.000E-01 9.888E+01 9.886E+01 5.000E+00 5.000E+00                     3.000E-02
     8  1.500E-05 1.500E-05 5.000E-01 5.000E-01 9.886E+01 9.884E+01 5.000E+00 5.000E+00                     3.000E-02
     9  1.500E-05 1.500E-05 5.000E-01 5.000E-01 9.884E+01 9.882E+01 5.000E+00 5.000E+00                     3.000E-02
    10  1.500E-05 1.500E-05 5.000E-01 5.000E-01 9.882E+01 9.880E+01 5.000E+00 5.000E+00                     3.000E-02
    11  1.500E-05 1.500E-05 5.000E-01 5.000E-01 9.894E+01 9.892E+01 5.000E+00 5.000E+00                     3.000E-02
    12  1.500E-05 1.500E-05 5.000E-01 5.000E-01 9.890E+01 9.888E+01 5.000E+00 5.000E+00                     3.000E-02






            AREAL INFILTRATION RATE
 READING ON UNIT   19 WITH FORMAT: (10E15.6)           



                            ET RATE
 READING ON UNIT   19 WITH FORMAT: (10E15.6)           



                ET EXTINCTION DEPTH
 READING ON UNIT   19 WITH FORMAT: (10E15.6)           



           EXTINCTION WATER CONTENT
 READING ON UNIT   19 WITH FORMAT: (10E15.6)           

 PROCESSING AG STRESS PERIOD DATA

 READING AG STRESS PERIOD DATA

 READING IRRIGATION SEGMENT

 READING IRRIGATION WELL

 READING SUPPLEMENTAL WELL

 END PROCESSING AG STRESS PERIOD DATA OPTIONS
 
 SOLVING FOR HEAD 

    ------------------------------------------------
       NWT REQUIRED            1 OUTER ITERATIONS 
       AND A TOTAL OF          2 INNER ITERATIONS.
    ------------------------------------------------

 OUTPUT CONTROL FOR STRESS PERIOD    7   TIME STEP    1
    SAVE HEAD FOR ALL LAYERS
    SAVE BUDGET
 UBDSV1 SAVING "         STORAGE" ON UNIT  52 AT TIME STEP  1, STRESS PERIOD   7
 UBDSV2 SAVING "   CONSTANT HEAD" ON UNIT  52 AT TIME STEP  1, STRESS PERIOD   7
 UBDSV1 SAVING "FLOW RIGHT FACE " ON UNIT  52 AT TIME STEP  1, STRESS PERIOD   7
 UBDSV1 SAVING "FLOW FRONT FACE " ON UNIT  52 AT TIME STEP  1, STRESS PERIOD   7
 UBDSV4 SAVING "  STREAM LEAKAGE" ON UNIT  52 AT TIME STEP  1, STRESS PERIOD   7



 UBUDSV SAVING "           GW ET" ON UNIT 52 AT TIME STEP  1, STRESS PERIOD    7
 UBUDSV SAVING "    UZF RECHARGE" ON UNIT 52 AT TIME STEP  1, STRESS PERIOD    7
 UBUDSV SAVING " SURFACE LEAKAGE" ON UNIT 52 AT TIME STEP  1, STRESS PERIOD    7
 UBUDSV SAVING "       HORT+DUNN" ON UNIT 52 AT TIME STEP  1, STRESS PERIOD    7
 UBUDSV SAVING "  STORAGE CHANGE" ON UNIT 52 AT TIME STEP  1, STRESS PERIOD    7
 UBDSV4 SAVING "           AG WE" ON UNIT  52 AT TIME STEP  1, STRESS PERIOD   7

 HEAD WILL BE SAVED ON UNIT   51 AT END OF TIME STEP    1, STRESS PERIOD    7
 
 SOLVING FOR HEAD 

    ------------------------------------------------
       NWT REQUIRED            1 OUTER ITERATIONS 
       AND A TOTAL OF          1 INNER ITERATIONS.
    ------------------------------------------------

 OUTPUT CONTROL FOR STRESS PERIOD    7   TIME STEP    2
    SAVE HEAD FOR ALL LAYERS
    SAVE BUDGET
 UBDSV1 SAVING "         STORAGE" ON UNIT  52 AT TIME STEP  2, STRESS PERIOD   7
 UBDSV2 SAVING "   CONSTANT HEAD" ON UNIT  52 AT TIME STEP  2, STRESS PERIOD   7
 UBDSV1 SAVING "FLOW RIGHT FACE " ON UNIT  52 AT TIME STEP  2, STRESS PERIOD   7
 UBDSV1 SAVING "FLOW FRONT FACE " ON UNIT  52 AT TIME STEP  2, STRESS PERIOD   7
 UBDSV4 SAVING "  STREAM LEAKAGE" ON UNIT  52 AT TIME STEP  2, STRESS PERIOD   7



 UBUDSV SAVING "           GW ET" ON UNIT 52 AT TIME STEP  2, STRESS PERIOD    7
 UBUDSV SAVING "    UZF RECHARGE" ON UNIT 52 AT TIME STEP  2, STRESS PERIOD    7
 UBUDSV SAVING " SURFACE LEAKAGE" ON UNIT 52 AT TIME STEP  2, STRESS PERIOD    7
 UBUDSV SAVING "       HORT+DUNN" ON UNIT 52 AT TIME STEP  2, STRESS PERIOD    7
 UBUDSV SAVING "  STORAGE CHANGE" ON UNIT 52 AT TIME STEP  2, STRESS PERIOD    7
 UBDSV4 SAVING "           AG WE" ON UNIT  52 AT TIME STEP  2, STRESS PERIOD   7

 HEAD WILL BE SAVED ON UNIT   51 AT END OF TIME STEP    2, STRESS PERIOD    7
 
 SOLVING FOR HEAD 

    ------------------------------------------------
       NWT REQUIRED            1 OUTER ITERATIONS 
       AND A TOTAL OF          2 INNER ITERATIONS.
    ------------------------------------------------

 OUTPUT CONTROL FOR STRESS PERIOD    7   TIME STEP    3
    SAVE HEAD FOR ALL LAYERS
    SAVE BUDGET
 UBDSV1 SAVING "         STORAGE" ON UNIT  52 AT TIME STEP  3, STRESS PERIOD   7
 UBDSV2 SAVING "   CONSTANT HEAD" ON UNIT  52 AT TIME STEP  3, STRESS PERIOD   7
 UBDSV1 SAVING "FLOW RIGHT FACE " ON UNIT  52 AT TIME STEP  3, STRESS PERIOD   7
 UBDSV1 SAVING "FLOW FRONT FACE " ON UNIT  52 AT TIME STEP  3, STRESS PERIOD   7
 UBDSV4 SAVING "  STREAM LEAKAGE" ON UNIT  52 AT TIME STEP  3, STRESS PERIOD   7



 UBUDSV SAVING "           GW ET" ON UNIT 52 AT TIME STEP  3, STRESS PERIOD    7
 UBUDSV SAVING "    UZF RECHARGE" ON UNIT 52 AT TIME STEP  3, STRESS PERIOD    7
 UBUDSV SAVING " SURFACE LEAKAGE" ON UNIT 52 AT TIME STEP  3, STRESS PERIOD    7
 UBUDSV SAVING "       HORT+DUNN" ON UNIT 52 AT TIME STEP  3, STRESS PERIOD    7
 UBUDSV SAVING "  STORAGE CHANGE" ON UNIT 52 AT TIME STEP  3, STRESS PERIOD    7
 UBDSV4 SAVING "           AG WE" ON UNIT  52 AT TIME STEP  3, STRESS PERIOD   7

 HEAD WILL BE SAVED ON UNIT   51 AT END OF TIME STEP    3, STRESS PERIOD    7
 
 SOLVING FOR HEAD 

    ------------------------------------------------
       NWT REQUIRED            1 OUTER ITERATIONS 
       AND A TOTAL OF          2 INNER ITERATIONS.
    ------------------------------------------------

 OUTPUT CONTROL FOR STRESS PERIOD    7   TIME STEP    4
    SAVE HEAD FOR ALL LAYERS
    SAVE BUDGET
 UBDSV1 SAVING "         STORAGE" ON UNIT  52 AT TIME STEP  4, STRESS PERIOD   7
 UBDSV2 SAVING "   CONSTANT HEAD" ON UNIT  52 AT TIME STEP  4, STRESS PERIOD   7
 UBDSV1 SAVING "FLOW RIGHT FACE " ON UNIT  52 AT TIME STEP  4, STRESS PERIOD   7
 UBDSV1 SAVING "FLOW FRONT FACE " ON UNIT  52 AT TIME STEP  4, STRESS PERIOD   7
 UBDSV4 SAVING "  STREAM LEAKAGE" ON UNIT  52 AT TIME STEP  4, STRESS PERIOD   7



 UBUDSV SAVING "           GW ET" ON UNIT 52 AT TIME STEP  4, STRESS PERIOD    7
 UBUDSV SAVING "    UZF RECHARGE" ON UNIT 52 AT TIME STEP  4, STRESS PERIOD    7
 UBUDSV SAVING " SURFACE LEAKAGE" ON UNIT 52 AT TIME STEP  4, STRESS PERIOD    7
 UBUDSV SAVING "       HORT+DUNN" ON UNIT 52 AT TIME STEP  4, STRESS PERIOD    7
 UBUDSV SAVING "  STORAGE CHANGE" ON UNIT 52 AT TIME STEP  4, STRESS PERIOD    7
 UBDSV4 SAVING "           AG WE" ON UNIT  52 AT TIME STEP  4, STRESS PERIOD   7

 HEAD WILL BE SAVED ON UNIT   51 AT END OF TIME STEP    4, STRESS PERIOD    7
 
 SOLVING FOR HEAD 

    ------------------------------------------------
       NWT REQUIRED            1 OUTER ITERATIONS 
       AND A TOTAL OF          2 INNER ITERATIONS.
    ------------------------------------------------

 OUTPUT CONTROL FOR STRESS PERIOD    7   TIME STEP    5
    SAVE HEAD FOR ALL LAYERS
    SAVE BUDGET
 UBDSV1 SAVING "         STORAGE" ON UNIT  52 AT TIME STEP  5, STRESS PERIOD   7
 UBDSV2 SAVING "   CONSTANT HEAD" ON UNIT  52 AT TIME STEP  5, STRESS PERIOD   7
 UBDSV1 SAVING "FLOW RIGHT FACE " ON UNIT  52 AT TIME STEP  5, STRESS PERIOD   7
 UBDSV1 SAVING "FLOW FRONT FACE " ON UNIT  52 AT TIME STEP  5, STRESS PERIOD   7
 UBDSV4 SAVING "  STREAM LEAKAGE" ON UNIT  52 AT TIME STEP  5, STRESS PERIOD   7



 UBUDSV SAVING "           GW ET" ON UNIT 52 AT TIME STEP  5, STRESS PERIOD    7
 UBUDSV SAVING "    UZF RECHARGE" ON UNIT 52 AT TIME STEP  5, STRESS PERIOD    7
 UBUDSV SAVING " SURFACE LEAKAGE" ON UNIT 52 AT TIME STEP  5, STRESS PERIOD    7
 UBUDSV SAVING "       HORT+DUNN" ON UNIT 52 AT TIME STEP  5, STRESS PERIOD    7
 UBUDSV SAVING "  STORAGE CHANGE" ON UNIT 52 AT TIME STEP  5, STRESS PERIOD    7
 UBDSV4 SAVING "           AG WE" ON UNIT  52 AT TIME STEP  5, STRESS PERIOD   7

 HEAD WILL BE SAVED ON UNIT   51 AT END OF TIME STEP    5, STRESS PERIOD    7
 
 SOLVING FOR HEAD 

    ------------------------------------------------
       NWT REQUIRED            1 OUTER ITERATIONS 
       AND A TOTAL OF          2 INNER ITERATIONS.
    ------------------------------------------------

 OUTPUT CONTROL FOR STRESS PERIOD    7   TIME STEP    6
    SAVE HEAD FOR ALL LAYERS
    SAVE BUDGET
 UBDSV1 SAVING "         STORAGE" ON UNIT  52 AT TIME STEP  6, STRESS PERIOD   7
 UBDSV2 SAVING "   CONSTANT HEAD" ON UNIT  52 AT TIME STEP  6, STRESS PERIOD   7
 UBDSV1 SAVING "FLOW RIGHT FACE " ON UNIT  52 AT TIME STEP  6, STRESS PERIOD   7
 UBDSV1 SAVING "FLOW FRONT FACE " ON UNIT  52 AT TIME STEP  6, STRESS PERIOD   7
 UBDSV4 SAVING "  STREAM LEAKAGE" ON UNIT  52 AT TIME STEP  6, STRESS PERIOD   7



 UBUDSV SAVING "           GW ET" ON UNIT 52 AT TIME STEP  6, STRESS PERIOD    7
 UBUDSV SAVING "    UZF RECHARGE" ON UNIT 52 AT TIME STEP  6, STRESS PERIOD    7
 UBUDSV SAVING " SURFACE LEAKAGE" ON UNIT 52 AT TIME STEP  6, STRESS PERIOD    7
 UBUDSV SAVING "       HORT+DUNN" ON UNIT 52 AT TIME STEP  6, STRESS PERIOD    7
 UBUDSV SAVING "  STORAGE CHANGE" ON UNIT 52 AT TIME STEP  6, STRESS PERIOD    7
 UBDSV4 SAVING "           AG WE" ON UNIT  52 AT TIME STEP  6, STRESS PERIOD   7

 HEAD WILL BE SAVED ON UNIT   51 AT END OF TIME STEP    6, STRESS PERIOD    7
 
 SOLVING FOR HEAD 

    ------------------------------------------------
       NWT REQUIRED            1 OUTER ITERATIONS 
       AND A TOTAL OF          2 INNER ITERATIONS.
    ------------------------------------------------

 OUTPUT CONTROL FOR STRESS PERIOD    7   TIME STEP    7
    SAVE HEAD FOR ALL LAYERS
    SAVE BUDGET
 UBDSV1 SAVING "         STORAGE" ON UNIT  52 AT TIME STEP  7, STRESS PERIOD   7
 UBDSV2 SAVING "   CONSTANT HEAD" ON UNIT  52 AT TIME STEP  7, STRESS PERIOD   7
 UBDSV1 SAVING "FLOW RIGHT FACE " ON UNIT  52 AT TIME STEP  7, STRESS PERIOD   7
 UBDSV1 SAVING "FLOW FRONT FACE " ON UNIT  52 AT TIME STEP  7, STRESS PERIOD   7
 UBDSV4 SAVING "  STREAM LEAKAGE" ON UNIT  52 AT TIME STEP  7, STRESS PERIOD   7



 UBUDSV SAVING "           GW ET" ON UNIT 52 AT TIME STEP  7, STRESS PERIOD    7
 UBUDSV SAVING "    UZF RECHARGE" ON UNIT 52 AT TIME STEP  7, STRESS PERIOD    7
 UBUDSV SAVING " SURFACE LEAKAGE" ON UNIT 52 AT TIME STEP  7, STRESS PERIOD    7
 UBUDSV SAVING "       HORT+DUNN" ON UNIT 52 AT TIME STEP  7, STRESS PERIOD    7
 UBUDSV SAVING "  STORAGE CHANGE" ON UNIT 52 AT TIME STEP  7, STRESS PERIOD    7
 UBDSV4 SAVING "           AG WE" ON UNIT  52 AT TIME STEP  7, STRESS PERIOD   7

 HEAD WILL BE SAVED ON UNIT   51 AT END OF TIME STEP    7, STRESS PERIOD    7
 
 SOLVING FOR HEAD 

    ------------------------------------------------
       NWT REQUIRED            1 OUTER ITERATIONS 
       AND A TOTAL OF          2 INNER ITERATIONS.
    ------------------------------------------------

 OUTPUT CONTROL FOR STRESS PERIOD    7   TIME STEP    8
    SAVE HEAD FOR ALL LAYERS
    SAVE BUDGET
 UBDSV1 SAVING "         STORAGE" ON UNIT  52 AT TIME STEP  8, STRESS PERIOD   7
 UBDSV2 SAVING "   CONSTANT HEAD" ON UNIT  52 AT TIME STEP  8, STRESS PERIOD   7
 UBDSV1 SAVING "FLOW RIGHT FACE " ON UNIT  52 AT TIME STEP  8, STRESS PERIOD   7
 UBDSV1 SAVING "FLOW FRONT FACE " ON UNIT  52 AT TIME STEP  8, STRESS PERIOD   7
 UBDSV4 SAVING "  STREAM LEAKAGE" ON UNIT  52 AT TIME STEP  8, STRESS PERIOD   7



 UBUDSV SAVING "           GW ET" ON UNIT 52 AT TIME STEP  8, STRESS PERIOD    7
 UBUDSV SAVING "    UZF RECHARGE" ON UNIT 52 AT TIME STEP  8, STRESS PERIOD    7
 UBUDSV SAVING " SURFACE LEAKAGE" ON UNIT 52 AT TIME STEP  8, STRESS PERIOD    7
 UBUDSV SAVING "       HORT+DUNN" ON UNIT 52 AT TIME STEP  8, STRESS PERIOD    7
 UBUDSV SAVING "  STORAGE CHANGE" ON UNIT 52 AT TIME STEP  8, STRESS PERIOD    7
 UBDSV4 SAVING "           AG WE" ON UNIT  52 AT TIME STEP  8, STRESS PERIOD   7

 HEAD WILL BE SAVED ON UNIT   51 AT END OF TIME STEP    8, STRESS PERIOD    7
 
 SOLVING FOR HEAD 

    ------------------------------------------------
       NWT REQUIRED            1 OUTER ITERATIONS 
       AND A TOTAL OF          2 INNER ITERATIONS.
    ------------------------------------------------

 OUTPUT CONTROL FOR STRESS PERIOD    7   TIME STEP    9
    SAVE HEAD FOR ALL LAYERS
    SAVE BUDGET
 UBDSV1 SAVING "         STORAGE" ON UNIT  52 AT TIME STEP  9, STRESS PERIOD   7
 UBDSV2 SAVING "   CONSTANT HEAD" ON UNIT  52 AT TIME STEP  9, STRESS PERIOD   7
 UBDSV1 SAVING "FLOW RIGHT FACE " ON UNIT  52 AT TIME STEP  9, STRESS PERIOD   7
 UBDSV1 SAVING "FLOW FRONT FACE " ON UNIT  52 AT TIME STEP  9, STRESS PERIOD   7
 UBDSV4 SAVING "  STREAM LEAKAGE" ON UNIT  52 AT TIME STEP  9, STRESS PERIOD   7



 UBUDSV SAVING "           GW ET" ON UNIT 52 AT TIME STEP  9, STRESS PERIOD    7
 UBUDSV SAVING "    UZF RECHARGE" ON UNIT 52 AT TIME STEP  9, STRESS PERIOD    7
 UBUDSV SAVING " SURFACE LEAKAGE" ON UNIT 52 AT TIME STEP  9, STRESS PERIOD    7
 UBUDSV SAVING "       HORT+DUNN" ON UNIT 52 AT TIME STEP  9, STRESS PERIOD    7
 UBUDSV SAVING "  STORAGE CHANGE" ON UNIT 52 AT TIME STEP  9, STRESS PERIOD    7
 UBDSV4 SAVING "           AG WE" ON UNIT  52 AT TIME STEP  9, STRESS PERIOD   7

 HEAD WILL BE SAVED ON UNIT   51 AT END OF TIME STEP    9, STRESS PERIOD    7
 
 SOLVING FOR HEAD 

    ------------------------------------------------
       NWT REQUIRED            1 OUTER ITERATIONS 
       AND A TOTAL OF          2 INNER ITERATIONS.
    ------------------------------------------------

 OUTPUT CONTROL FOR STRESS PERIOD    7   TIME STEP   10
    SAVE HEAD FOR ALL LAYERS
    SAVE BUDGET
 UBDSV1 SAVING "         STORAGE" ON UNIT  52 AT TIME STEP 10, STRESS PERIOD   7
 UBDSV2 SAVING "   CONSTANT HEAD" ON UNIT  52 AT TIME STEP 10, STRESS PERIOD   7
 UBDSV1 SAVING "FLOW RIGHT FACE " ON UNIT  52 AT TIME STEP 10, STRESS PERIOD   7
 UBDSV1 SAVING "FLOW FRONT FACE " ON UNIT  52 AT TIME STEP 10, STRESS PERIOD   7
 UBDSV4 SAVING "  STREAM LEAKAGE" ON UNIT  52 AT TIME STEP 10, STRESS PERIOD   7



 UBUDSV SAVING "           GW ET" ON UNIT 52 AT TIME STEP 10, STRESS PERIOD    7
 UBUDSV SAVING "    UZF RECHARGE" ON UNIT 52 AT TIME STEP 10, STRESS PERIOD    7
 UBUDSV SAVING " SURFACE LEAKAGE" ON UNIT 52 AT TIME STEP 10, STRESS PERIOD    7
 UBUDSV SAVING "       HORT+DUNN" ON UNIT 52 AT TIME STEP 10, STRESS PERIOD    7
 UBUDSV SAVING "  STORAGE CHANGE" ON UNIT 52 AT TIME STEP 10, STRESS PERIOD    7
 UBDSV4 SAVING "           AG WE" ON UNIT  52 AT TIME STEP 10, STRESS PERIOD   7

 HEAD WILL BE SAVED ON UNIT   51 AT END OF TIME STEP   10, STRESS PERIOD    7
 
 SOLVING FOR HEAD 

    ------------------------------------------------
       NWT REQUIRED            1 OUTER ITERATIONS 
       AND A TOTAL OF          2 INNER ITERATIONS.
    ------------------------------------------------

 OUTPUT CONTROL FOR STRESS PERIOD    7   TIME STEP   11
    SAVE HEAD FOR ALL LAYERS
    SAVE BUDGET
 UBDSV1 SAVING "         STORAGE" ON UNIT  52 AT TIME STEP 11, STRESS PERIOD   7
 UBDSV2 SAVING "   CONSTANT HEAD" ON UNIT  52 AT TIME STEP 11, STRESS PERIOD   7
 UBDSV1 SAVING "FLOW RIGHT FACE " ON UNIT  52 AT TIME STEP 11, STRESS PERIOD   7
 UBDSV1 SAVING "FLOW FRONT FACE " ON UNIT  52 AT TIME STEP 11, STRESS PERIOD   7
 UBDSV4 SAVING "  STREAM LEAKAGE" ON UNIT  52 AT TIME STEP 11, STRESS PERIOD   7



 UBUDSV SAVING "           GW ET" ON UNIT 52 AT TIME STEP 11, STRESS PERIOD    7
 UBUDSV SAVING "    UZF RECHARGE" ON UNIT 52 AT TIME STEP 11, STRESS PERIOD    7
 UBUDSV SAVING " SURFACE LEAKAGE" ON UNIT 52 AT TIME STEP 11, STRESS PERIOD    7
 UBUDSV SAVING "       HORT+DUNN" ON UNIT 52 AT TIME STEP 11, STRESS PERIOD    7
 UBUDSV SAVING "  STORAGE CHANGE" ON UNIT 52 AT TIME STEP 11, STRESS PERIOD    7
 UBDSV4 SAVING "           AG WE" ON UNIT  52 AT TIME STEP 11, STRESS PERIOD   7

 HEAD WILL BE SAVED ON UNIT   51 AT END OF TIME STEP   11, STRESS PERIOD    7
 
 SOLVING FOR HEAD 

    ------------------------------------------------
       NWT REQUIRED            1 OUTER ITERATIONS 
       AND A TOTAL OF          2 INNER ITERATIONS.
    ------------------------------------------------

 OUTPUT CONTROL FOR STRESS PERIOD    7   TIME STEP   12
    SAVE HEAD FOR ALL LAYERS
    SAVE BUDGET
 UBDSV1 SAVING "         STORAGE" ON UNIT  52 AT TIME STEP 12, STRESS PERIOD   7
 UBDSV2 SAVING "   CONSTANT HEAD" ON UNIT  52 AT TIME STEP 12, STRESS PERIOD   7
 UBDSV1 SAVING "FLOW RIGHT FACE " ON UNIT  52 AT TIME STEP 12, STRESS PERIOD   7
 UBDSV1 SAVING "FLOW FRONT FACE " ON UNIT  52 AT TIME STEP 12, STRESS PERIOD   7
 UBDSV4 SAVING "  STREAM LEAKAGE" ON UNIT  52 AT TIME STEP 12, STRESS PERIOD   7



 UBUDSV SAVING "           GW ET" ON UNIT 52 AT TIME STEP 12, STRESS PERIOD    7
 UBUDSV SAVING "    UZF RECHARGE" ON UNIT 52 AT TIME STEP 12, STRESS PERIOD    7
 UBUDSV SAVING " SURFACE LEAKAGE" ON UNIT 52 AT TIME STEP 12, STRESS PERIOD    7
 UBUDSV SAVING "       HORT+DUNN" ON UNIT 52 AT TIME STEP 12, STRESS PERIOD    7
 UBUDSV SAVING "  STORAGE CHANGE" ON UNIT 52 AT TIME STEP 12, STRESS PERIOD    7
 UBDSV4 SAVING "           AG WE" ON UNIT  52 AT TIME STEP 12, STRESS PERIOD   7

 HEAD WILL BE SAVED ON UNIT   51 AT END OF TIME STEP   12, STRESS PERIOD    7
 
 SOLVING FOR HEAD 

    ------------------------------------------------
       NWT REQUIRED            1 OUTER ITERATIONS 
       AND A TOTAL OF          2 INNER ITERATIONS.
    ------------------------------------------------

 OUTPUT CONTROL FOR STRESS PERIOD    7   TIME STEP   13
    SAVE HEAD FOR ALL LAYERS
    SAVE BUDGET
 UBDSV1 SAVING "         STORAGE" ON UNIT  52 AT TIME STEP 13, STRESS PERIOD   7
 UBDSV2 SAVING "   CONSTANT HEAD" ON UNIT  52 AT TIME STEP 13, STRESS PERIOD   7
 UBDSV1 SAVING "FLOW RIGHT FACE " ON UNIT  52 AT TIME STEP 13, STRESS PERIOD   7
 UBDSV1 SAVING "FLOW FRONT FACE " ON UNIT  52 AT TIME STEP 13, STRESS PERIOD   7
 UBDSV4 SAVING "  STREAM LEAKAGE" ON UNIT  52 AT TIME STEP 13, STRESS PERIOD   7



 UBUDSV SAVING "           GW ET" ON UNIT 52 AT TIME STEP 13, STRESS PERIOD    7
 UBUDSV SAVING "    UZF RECHARGE" ON UNIT 52 AT TIME STEP 13, STRESS PERIOD    7
 UBUDSV SAVING " SURFACE LEAKAGE" ON UNIT 52 AT TIME STEP 13, STRESS PERIOD    7
 UBUDSV SAVING "       HORT+DUNN" ON UNIT 52 AT TIME STEP 13, STRESS PERIOD    7
 UBUDSV SAVING "  STORAGE CHANGE" ON UNIT 52 AT TIME STEP 13, STRESS PERIOD    7
 UBDSV4 SAVING "           AG WE" ON UNIT  52 AT TIME STEP 13, STRESS PERIOD   7

 HEAD WILL BE SAVED ON UNIT   51 AT END OF TIME STEP   13, STRESS PERIOD    7
 
 SOLVING FOR HEAD 

    ------------------------------------------------
       NWT REQUIRED            1 OUTER ITERATIONS 
       AND A TOTAL OF          2 INNER ITERATIONS.
    ------------------------------------------------

 OUTPUT CONTROL FOR STRESS PERIOD    7   TIME STEP   14
    SAVE HEAD FOR ALL LAYERS
    SAVE BUDGET
 UBDSV1 SAVING "         STORAGE" ON UNIT  52 AT TIME STEP 14, STRESS PERIOD   7
 UBDSV2 SAVING "   CONSTANT HEAD" ON UNIT  52 AT TIME STEP 14, STRESS PERIOD   7
 UBDSV1 SAVING "FLOW RIGHT FACE " ON UNIT  52 AT TIME STEP 14, STRESS PERIOD   7
 UBDSV1 SAVING "FLOW FRONT FACE " ON UNIT  52 AT TIME STEP 14, STRESS PERIOD   7
 UBDSV4 SAVING "  STREAM LEAKAGE" ON UNIT  52 AT TIME STEP 14, STRESS PERIOD   7



 UBUDSV SAVING "           GW ET" ON UNIT 52 AT TIME STEP 14, STRESS PERIOD    7
 UBUDSV SAVING "    UZF RECHARGE" ON UNIT 52 AT TIME STEP 14, STRESS PERIOD    7
 UBUDSV SAVING " SURFACE LEAKAGE" ON UNIT 52 AT TIME STEP 14, STRESS PERIOD    7
 UBUDSV SAVING "       HORT+DUNN" ON UNIT 52 AT TIME STEP 14, STRESS PERIOD    7
 UBUDSV SAVING "  STORAGE CHANGE" ON UNIT 52 AT TIME STEP 14, STRESS PERIOD    7
 UBDSV4 SAVING "           AG WE" ON UNIT  52 AT TIME STEP 14, STRESS PERIOD   7

 HEAD WILL BE SAVED ON UNIT   51 AT END OF TIME STEP   14, STRESS PERIOD    7
 
 SOLVING FOR HEAD 

    ------------------------------------------------
       NWT REQUIRED            1 OUTER ITERATIONS 
       AND A TOTAL OF          2 INNER ITERATIONS.
    ------------------------------------------------

 OUTPUT CONTROL FOR STRESS PERIOD    7   TIME STEP   15
    SAVE HEAD FOR ALL LAYERS
    SAVE BUDGET
 UBDSV1 SAVING "         STORAGE" ON UNIT  52 AT TIME STEP 15, STRESS PERIOD   7
 UBDSV2 SAVING "   CONSTANT HEAD" ON UNIT  52 AT TIME STEP 15, STRESS PERIOD   7
 UBDSV1 SAVING "FLOW RIGHT FACE " ON UNIT  52 AT TIME STEP 15, STRESS PERIOD   7
 UBDSV1 SAVING "FLOW FRONT FACE " ON UNIT  52 AT TIME STEP 15, STRESS PERIOD   7
 UBDSV4 SAVING "  STREAM LEAKAGE" ON UNIT  52 AT TIME STEP 15, STRESS PERIOD   7



 UBUDSV SAVING "           GW ET" ON UNIT 52 AT TIME STEP 15, STRESS PERIOD    7
 UBUDSV SAVING "    UZF RECHARGE" ON UNIT 52 AT TIME STEP 15, STRESS PERIOD    7
 UBUDSV SAVING " SURFACE LEAKAGE" ON UNIT 52 AT TIME STEP 15, STRESS PERIOD    7
 UBUDSV SAVING "       HORT+DUNN" ON UNIT 52 AT TIME STEP 15, STRESS PERIOD    7
 UBUDSV SAVING "  STORAGE CHANGE" ON UNIT 52 AT TIME STEP 15, STRESS PERIOD    7
 UBDSV4 SAVING "           AG WE" ON UNIT  52 AT TIME STEP 15, STRESS PERIOD   7

 HEAD WILL BE SAVED ON UNIT   51 AT END OF TIME STEP   15, STRESS PERIOD    7
 
 SOLVING FOR HEAD 

    ------------------------------------------------
       NWT REQUIRED            1 OUTER ITERATIONS 
       AND A TOTAL OF          2 INNER ITERATIONS.
    ------------------------------------------------

 OUTPUT CONTROL FOR STRESS PERIOD    7   TIME STEP   16
    SAVE HEAD FOR ALL LAYERS
    SAVE BUDGET
 UBDSV1 SAVING "         STORAGE" ON UNIT  52 AT TIME STEP 16, STRESS PERIOD   7
 UBDSV2 SAVING "   CONSTANT HEAD" ON UNIT  52 AT TIME STEP 16, STRESS PERIOD   7
 UBDSV1 SAVING "FLOW RIGHT FACE " ON UNIT  52 AT TIME STEP 16, STRESS PERIOD   7
 UBDSV1 SAVING "FLOW FRONT FACE " ON UNIT  52 AT TIME STEP 16, STRESS PERIOD   7
 UBDSV4 SAVING "  STREAM LEAKAGE" ON UNIT  52 AT TIME STEP 16, STRESS PERIOD   7



 UBUDSV SAVING "           GW ET" ON UNIT 52 AT TIME STEP 16, STRESS PERIOD    7
 UBUDSV SAVING "    UZF RECHARGE" ON UNIT 52 AT TIME STEP 16, STRESS PERIOD    7
 UBUDSV SAVING " SURFACE LEAKAGE" ON UNIT 52 AT TIME STEP 16, STRESS PERIOD    7
 UBUDSV SAVING "       HORT+DUNN" ON UNIT 52 AT TIME STEP 16, STRESS PERIOD    7
 UBUDSV SAVING "  STORAGE CHANGE" ON UNIT 52 AT TIME STEP 16, STRESS PERIOD    7
 UBDSV4 SAVING "           AG WE" ON UNIT  52 AT TIME STEP 16, STRESS PERIOD   7

 HEAD WILL BE SAVED ON UNIT   51 AT END OF TIME STEP   16, STRESS PERIOD    7
 
 SOLVING FOR HEAD 

    ------------------------------------------------
       NWT REQUIRED            1 OUTER ITERATIONS 
       AND A TOTAL OF          2 INNER ITERATIONS.
    ------------------------------------------------

 OUTPUT CONTROL FOR STRESS PERIOD    7   TIME STEP   17
    SAVE HEAD FOR ALL LAYERS
    SAVE BUDGET
 UBDSV1 SAVING "         STORAGE" ON UNIT  52 AT TIME STEP 17, STRESS PERIOD   7
 UBDSV2 SAVING "   CONSTANT HEAD" ON UNIT  52 AT TIME STEP 17, STRESS PERIOD   7
 UBDSV1 SAVING "FLOW RIGHT FACE " ON UNIT  52 AT TIME STEP 17, STRESS PERIOD   7
 UBDSV1 SAVING "FLOW FRONT FACE " ON UNIT  52 AT TIME STEP 17, STRESS PERIOD   7
 UBDSV4 SAVING "  STREAM LEAKAGE" ON UNIT  52 AT TIME STEP 17, STRESS PERIOD   7



 UBUDSV SAVING "           GW ET" ON UNIT 52 AT TIME STEP 17, STRESS PERIOD    7
 UBUDSV SAVING "    UZF RECHARGE" ON UNIT 52 AT TIME STEP 17, STRESS PERIOD    7
 UBUDSV SAVING " SURFACE LEAKAGE" ON UNIT 52 AT TIME STEP 17, STRESS PERIOD    7
 UBUDSV SAVING "       HORT+DUNN" ON UNIT 52 AT TIME STEP 17, STRESS PERIOD    7
 UBUDSV SAVING "  STORAGE CHANGE" ON UNIT 52 AT TIME STEP 17, STRESS PERIOD    7
 UBDSV4 SAVING "           AG WE" ON UNIT  52 AT TIME STEP 17, STRESS PERIOD   7

 HEAD WILL BE SAVED ON UNIT   51 AT END OF TIME STEP   17, STRESS PERIOD    7
 
 SOLVING FOR HEAD 

    ------------------------------------------------
       NWT REQUIRED            1 OUTER ITERATIONS 
       AND A TOTAL OF          2 INNER ITERATIONS.
    ------------------------------------------------

 OUTPUT CONTROL FOR STRESS PERIOD    7   TIME STEP   18
    SAVE HEAD FOR ALL LAYERS
    SAVE BUDGET
 UBDSV1 SAVING "         STORAGE" ON UNIT  52 AT TIME STEP 18, STRESS PERIOD   7
 UBDSV2 SAVING "   CONSTANT HEAD" ON UNIT  52 AT TIME STEP 18, STRESS PERIOD   7
 UBDSV1 SAVING "FLOW RIGHT FACE " ON UNIT  52 AT TIME STEP 18, STRESS PERIOD   7
 UBDSV1 SAVING "FLOW FRONT FACE " ON UNIT  52 AT TIME STEP 18, STRESS PERIOD   7
 UBDSV4 SAVING "  STREAM LEAKAGE" ON UNIT  52 AT TIME STEP 18, STRESS PERIOD   7



 UBUDSV SAVING "           GW ET" ON UNIT 52 AT TIME STEP 18, STRESS PERIOD    7
 UBUDSV SAVING "    UZF RECHARGE" ON UNIT 52 AT TIME STEP 18, STRESS PERIOD    7
 UBUDSV SAVING " SURFACE LEAKAGE" ON UNIT 52 AT TIME STEP 18, STRESS PERIOD    7
 UBUDSV SAVING "       HORT+DUNN" ON UNIT 52 AT TIME STEP 18, STRESS PERIOD    7
 UBUDSV SAVING "  STORAGE CHANGE" ON UNIT 52 AT TIME STEP 18, STRESS PERIOD    7
 UBDSV4 SAVING "           AG WE" ON UNIT  52 AT TIME STEP 18, STRESS PERIOD   7

 HEAD WILL BE SAVED ON UNIT   51 AT END OF TIME STEP   18, STRESS PERIOD    7
 
 SOLVING FOR HEAD 

    ------------------------------------------------
       NWT REQUIRED            1 OUTER ITERATIONS 
       AND A TOTAL OF          2 INNER ITERATIONS.
    ------------------------------------------------

 OUTPUT CONTROL FOR STRESS PERIOD    7   TIME STEP   19
    SAVE HEAD FOR ALL LAYERS
    SAVE BUDGET
 UBDSV1 SAVING "         STORAGE" ON UNIT  52 AT TIME STEP 19, STRESS PERIOD   7
 UBDSV2 SAVING "   CONSTANT HEAD" ON UNIT  52 AT TIME STEP 19, STRESS PERIOD   7
 UBDSV1 SAVING "FLOW RIGHT FACE " ON UNIT  52 AT TIME STEP 19, STRESS PERIOD   7
 UBDSV1 SAVING "FLOW FRONT FACE " ON UNIT  52 AT TIME STEP 19, STRESS PERIOD   7
 UBDSV4 SAVING "  STREAM LEAKAGE" ON UNIT  52 AT TIME STEP 19, STRESS PERIOD   7



 UBUDSV SAVING "           GW ET" ON UNIT 52 AT TIME STEP 19, STRESS PERIOD    7
 UBUDSV SAVING "    UZF RECHARGE" ON UNIT 52 AT TIME STEP 19, STRESS PERIOD    7
 UBUDSV SAVING " SURFACE LEAKAGE" ON UNIT 52 AT TIME STEP 19, STRESS PERIOD    7
 UBUDSV SAVING "       HORT+DUNN" ON UNIT 52 AT TIME STEP 19, STRESS PERIOD    7
 UBUDSV SAVING "  STORAGE CHANGE" ON UNIT 52 AT TIME STEP 19, STRESS PERIOD    7
 UBDSV4 SAVING "           AG WE" ON UNIT  52 AT TIME STEP 19, STRESS PERIOD   7

 HEAD WILL BE SAVED ON UNIT   51 AT END OF TIME STEP   19, STRESS PERIOD    7
 
 SOLVING FOR HEAD 

    ------------------------------------------------
       NWT REQUIRED            1 OUTER ITERATIONS 
       AND A TOTAL OF          2 INNER ITERATIONS.
    ------------------------------------------------

 OUTPUT CONTROL FOR STRESS PERIOD    7   TIME STEP   20
    SAVE HEAD FOR ALL LAYERS
    SAVE BUDGET
 UBDSV1 SAVING "         STORAGE" ON UNIT  52 AT TIME STEP 20, STRESS PERIOD   7
 UBDSV2 SAVING "   CONSTANT HEAD" ON UNIT  52 AT TIME STEP 20, STRESS PERIOD   7
 UBDSV1 SAVING "FLOW RIGHT FACE " ON UNIT  52 AT TIME STEP 20, STRESS PERIOD   7
 UBDSV1 SAVING "FLOW FRONT FACE " ON UNIT  52 AT TIME STEP 20, STRESS PERIOD   7
 UBDSV4 SAVING "  STREAM LEAKAGE" ON UNIT  52 AT TIME STEP 20, STRESS PERIOD   7



 UBUDSV SAVING "           GW ET" ON UNIT 52 AT TIME STEP 20, STRESS PERIOD    7
 UBUDSV SAVING "    UZF RECHARGE" ON UNIT 52 AT TIME STEP 20, STRESS PERIOD    7
 UBUDSV SAVING " SURFACE LEAKAGE" ON UNIT 52 AT TIME STEP 20, STRESS PERIOD    7
 UBUDSV SAVING "       HORT+DUNN" ON UNIT 52 AT TIME STEP 20, STRESS PERIOD    7
 UBUDSV SAVING "  STORAGE CHANGE" ON UNIT 52 AT TIME STEP 20, STRESS PERIOD    7
 UBDSV4 SAVING "           AG WE" ON UNIT  52 AT TIME STEP 20, STRESS PERIOD   7

 HEAD WILL BE SAVED ON UNIT   51 AT END OF TIME STEP   20, STRESS PERIOD    7
 
 SOLVING FOR HEAD 

    ------------------------------------------------
       NWT REQUIRED            1 OUTER ITERATIONS 
       AND A TOTAL OF          2 INNER ITERATIONS.
    ------------------------------------------------

 OUTPUT CONTROL FOR STRESS PERIOD    7   TIME STEP   21
    SAVE HEAD FOR ALL LAYERS
    SAVE BUDGET
 UBDSV1 SAVING "         STORAGE" ON UNIT  52 AT TIME STEP 21, STRESS PERIOD   7
 UBDSV2 SAVING "   CONSTANT HEAD" ON UNIT  52 AT TIME STEP 21, STRESS PERIOD   7
 UBDSV1 SAVING "FLOW RIGHT FACE " ON UNIT  52 AT TIME STEP 21, STRESS PERIOD   7
 UBDSV1 SAVING "FLOW FRONT FACE " ON UNIT  52 AT TIME STEP 21, STRESS PERIOD   7
 UBDSV4 SAVING "  STREAM LEAKAGE" ON UNIT  52 AT TIME STEP 21, STRESS PERIOD   7



 UBUDSV SAVING "           GW ET" ON UNIT 52 AT TIME STEP 21, STRESS PERIOD    7
 UBUDSV SAVING "    UZF RECHARGE" ON UNIT 52 AT TIME STEP 21, STRESS PERIOD    7
 UBUDSV SAVING " SURFACE LEAKAGE" ON UNIT 52 AT TIME STEP 21, STRESS PERIOD    7
 UBUDSV SAVING "       HORT+DUNN" ON UNIT 52 AT TIME STEP 21, STRESS PERIOD    7
 UBUDSV SAVING "  STORAGE CHANGE" ON UNIT 52 AT TIME STEP 21, STRESS PERIOD    7
 UBDSV4 SAVING "           AG WE" ON UNIT  52 AT TIME STEP 21, STRESS PERIOD   7

 HEAD WILL BE SAVED ON UNIT   51 AT END OF TIME STEP   21, STRESS PERIOD    7
 
 SOLVING FOR HEAD 

    ------------------------------------------------
       NWT REQUIRED            1 OUTER ITERATIONS 
       AND A TOTAL OF          2 INNER ITERATIONS.
    ------------------------------------------------

 OUTPUT CONTROL FOR STRESS PERIOD    7   TIME STEP   22
    SAVE HEAD FOR ALL LAYERS
    SAVE BUDGET
 UBDSV1 SAVING "         STORAGE" ON UNIT  52 AT TIME STEP 22, STRESS PERIOD   7
 UBDSV2 SAVING "   CONSTANT HEAD" ON UNIT  52 AT TIME STEP 22, STRESS PERIOD   7
 UBDSV1 SAVING "FLOW RIGHT FACE " ON UNIT  52 AT TIME STEP 22, STRESS PERIOD   7
 UBDSV1 SAVING "FLOW FRONT FACE " ON UNIT  52 AT TIME STEP 22, STRESS PERIOD   7
 UBDSV4 SAVING "  STREAM LEAKAGE" ON UNIT  52 AT TIME STEP 22, STRESS PERIOD   7



 UBUDSV SAVING "           GW ET" ON UNIT 52 AT TIME STEP 22, STRESS PERIOD    7
 UBUDSV SAVING "    UZF RECHARGE" ON UNIT 52 AT TIME STEP 22, STRESS PERIOD    7
 UBUDSV SAVING " SURFACE LEAKAGE" ON UNIT 52 AT TIME STEP 22, STRESS PERIOD    7
 UBUDSV SAVING "       HORT+DUNN" ON UNIT 52 AT TIME STEP 22, STRESS PERIOD    7
 UBUDSV SAVING "  STORAGE CHANGE" ON UNIT 52 AT TIME STEP 22, STRESS PERIOD    7
 UBDSV4 SAVING "           AG WE" ON UNIT  52 AT TIME STEP 22, STRESS PERIOD   7

 HEAD WILL BE SAVED ON UNIT   51 AT END OF TIME STEP   22, STRESS PERIOD    7
 
 SOLVING FOR HEAD 

    ------------------------------------------------
       NWT REQUIRED            1 OUTER ITERATIONS 
       AND A TOTAL OF          2 INNER ITERATIONS.
    ------------------------------------------------

 OUTPUT CONTROL FOR STRESS PERIOD    7   TIME STEP   23
    SAVE HEAD FOR ALL LAYERS
    SAVE BUDGET
 UBDSV1 SAVING "         STORAGE" ON UNIT  52 AT TIME STEP 23, STRESS PERIOD   7
 UBDSV2 SAVING "   CONSTANT HEAD" ON UNIT  52 AT TIME STEP 23, STRESS PERIOD   7
 UBDSV1 SAVING "FLOW RIGHT FACE " ON UNIT  52 AT TIME STEP 23, STRESS PERIOD   7
 UBDSV1 SAVING "FLOW FRONT FACE " ON UNIT  52 AT TIME STEP 23, STRESS PERIOD   7
 UBDSV4 SAVING "  STREAM LEAKAGE" ON UNIT  52 AT TIME STEP 23, STRESS PERIOD   7



 UBUDSV SAVING "           GW ET" ON UNIT 52 AT TIME STEP 23, STRESS PERIOD    7
 UBUDSV SAVING "    UZF RECHARGE" ON UNIT 52 AT TIME STEP 23, STRESS PERIOD    7
 UBUDSV SAVING " SURFACE LEAKAGE" ON UNIT 52 AT TIME STEP 23, STRESS PERIOD    7
 UBUDSV SAVING "       HORT+DUNN" ON UNIT 52 AT TIME STEP 23, STRESS PERIOD    7
 UBUDSV SAVING "  STORAGE CHANGE" ON UNIT 52 AT TIME STEP 23, STRESS PERIOD    7
 UBDSV4 SAVING "           AG WE" ON UNIT  52 AT TIME STEP 23, STRESS PERIOD   7

 HEAD WILL BE SAVED ON UNIT   51 AT END OF TIME STEP   23, STRESS PERIOD    7
 
 SOLVING FOR HEAD 

    ------------------------------------------------
       NWT REQUIRED            1 OUTER ITERATIONS 
       AND A TOTAL OF          2 INNER ITERATIONS.
    ------------------------------------------------

 OUTPUT CONTROL FOR STRESS PERIOD    7   TIME STEP   24
    SAVE HEAD FOR ALL LAYERS
    SAVE BUDGET
 UBDSV1 SAVING "         STORAGE" ON UNIT  52 AT TIME STEP 24, STRESS PERIOD   7
 UBDSV2 SAVING "   CONSTANT HEAD" ON UNIT  52 AT TIME STEP 24, STRESS PERIOD   7
 UBDSV1 SAVING "FLOW RIGHT FACE " ON UNIT  52 AT TIME STEP 24, STRESS PERIOD   7
 UBDSV1 SAVING "FLOW FRONT FACE " ON UNIT  52 AT TIME STEP 24, STRESS PERIOD   7
 UBDSV4 SAVING "  STREAM LEAKAGE" ON UNIT  52 AT TIME STEP 24, STRESS PERIOD   7



 UBUDSV SAVING "           GW ET" ON UNIT 52 AT TIME STEP 24, STRESS PERIOD    7
 UBUDSV SAVING "    UZF RECHARGE" ON UNIT 52 AT TIME STEP 24, STRESS PERIOD    7
 UBUDSV SAVING " SURFACE LEAKAGE" ON UNIT 52 AT TIME STEP 24, STRESS PERIOD    7
 UBUDSV SAVING "       HORT+DUNN" ON UNIT 52 AT TIME STEP 24, STRESS PERIOD    7
 UBUDSV SAVING "  STORAGE CHANGE" ON UNIT 52 AT TIME STEP 24, STRESS PERIOD    7
 UBDSV4 SAVING "           AG WE" ON UNIT  52 AT TIME STEP 24, STRESS PERIOD   7

 HEAD WILL BE SAVED ON UNIT   51 AT END OF TIME STEP   24, STRESS PERIOD    7
 
 SOLVING FOR HEAD 

    ------------------------------------------------
       NWT REQUIRED            1 OUTER ITERATIONS 
       AND A TOTAL OF          2 INNER ITERATIONS.
    ------------------------------------------------

 OUTPUT CONTROL FOR STRESS PERIOD    7   TIME STEP   25
    SAVE HEAD FOR ALL LAYERS
    SAVE BUDGET
 UBDSV1 SAVING "         STORAGE" ON UNIT  52 AT TIME STEP 25, STRESS PERIOD   7
 UBDSV2 SAVING "   CONSTANT HEAD" ON UNIT  52 AT TIME STEP 25, STRESS PERIOD   7
 UBDSV1 SAVING "FLOW RIGHT FACE " ON UNIT  52 AT TIME STEP 25, STRESS PERIOD   7
 UBDSV1 SAVING "FLOW FRONT FACE " ON UNIT  52 AT TIME STEP 25, STRESS PERIOD   7
 UBDSV4 SAVING "  STREAM LEAKAGE" ON UNIT  52 AT TIME STEP 25, STRESS PERIOD   7



 UBUDSV SAVING "           GW ET" ON UNIT 52 AT TIME STEP 25, STRESS PERIOD    7
 UBUDSV SAVING "    UZF RECHARGE" ON UNIT 52 AT TIME STEP 25, STRESS PERIOD    7
 UBUDSV SAVING " SURFACE LEAKAGE" ON UNIT 52 AT TIME STEP 25, STRESS PERIOD    7
 UBUDSV SAVING "       HORT+DUNN" ON UNIT 52 AT TIME STEP 25, STRESS PERIOD    7
 UBUDSV SAVING "  STORAGE CHANGE" ON UNIT 52 AT TIME STEP 25, STRESS PERIOD    7
 UBDSV4 SAVING "           AG WE" ON UNIT  52 AT TIME STEP 25, STRESS PERIOD   7

 HEAD WILL BE SAVED ON UNIT   51 AT END OF TIME STEP   25, STRESS PERIOD    7
 
 SOLVING FOR HEAD 

    ------------------------------------------------
       NWT REQUIRED            1 OUTER ITERATIONS 
       AND A TOTAL OF          2 INNER ITERATIONS.
    ------------------------------------------------

 OUTPUT CONTROL FOR STRESS PERIOD    7   TIME STEP   26
    SAVE HEAD FOR ALL LAYERS
    SAVE BUDGET
 UBDSV1 SAVING "         STORAGE" ON UNIT  52 AT TIME STEP 26, STRESS PERIOD   7
 UBDSV2 SAVING "   CONSTANT HEAD" ON UNIT  52 AT TIME STEP 26, STRESS PERIOD   7
 UBDSV1 SAVING "FLOW RIGHT FACE " ON UNIT  52 AT TIME STEP 26, STRESS PERIOD   7
 UBDSV1 SAVING "FLOW FRONT FACE " ON UNIT  52 AT TIME STEP 26, STRESS PERIOD   7
 UBDSV4 SAVING "  STREAM LEAKAGE" ON UNIT  52 AT TIME STEP 26, STRESS PERIOD   7



 UBUDSV SAVING "           GW ET" ON UNIT 52 AT TIME STEP 26, STRESS PERIOD    7
 UBUDSV SAVING "    UZF RECHARGE" ON UNIT 52 AT TIME STEP 26, STRESS PERIOD    7
 UBUDSV SAVING " SURFACE LEAKAGE" ON UNIT 52 AT TIME STEP 26, STRESS PERIOD    7
 UBUDSV SAVING "       HORT+DUNN" ON UNIT 52 AT TIME STEP 26, STRESS PERIOD    7
 UBUDSV SAVING "  STORAGE CHANGE" ON UNIT 52 AT TIME STEP 26, STRESS PERIOD    7
 UBDSV4 SAVING "           AG WE" ON UNIT  52 AT TIME STEP 26, STRESS PERIOD   7

 HEAD WILL BE SAVED ON UNIT   51 AT END OF TIME STEP   26, STRESS PERIOD    7
 
 SOLVING FOR HEAD 

    ------------------------------------------------
       NWT REQUIRED            1 OUTER ITERATIONS 
       AND A TOTAL OF          2 INNER ITERATIONS.
    ------------------------------------------------

 OUTPUT CONTROL FOR STRESS PERIOD    7   TIME STEP   27
    SAVE HEAD FOR ALL LAYERS
    SAVE BUDGET
 UBDSV1 SAVING "         STORAGE" ON UNIT  52 AT TIME STEP 27, STRESS PERIOD   7
 UBDSV2 SAVING "   CONSTANT HEAD" ON UNIT  52 AT TIME STEP 27, STRESS PERIOD   7
 UBDSV1 SAVING "FLOW RIGHT FACE " ON UNIT  52 AT TIME STEP 27, STRESS PERIOD   7
 UBDSV1 SAVING "FLOW FRONT FACE " ON UNIT  52 AT TIME STEP 27, STRESS PERIOD   7
 UBDSV4 SAVING "  STREAM LEAKAGE" ON UNIT  52 AT TIME STEP 27, STRESS PERIOD   7



 UBUDSV SAVING "           GW ET" ON UNIT 52 AT TIME STEP 27, STRESS PERIOD    7
 UBUDSV SAVING "    UZF RECHARGE" ON UNIT 52 AT TIME STEP 27, STRESS PERIOD    7
 UBUDSV SAVING " SURFACE LEAKAGE" ON UNIT 52 AT TIME STEP 27, STRESS PERIOD    7
 UBUDSV SAVING "       HORT+DUNN" ON UNIT 52 AT TIME STEP 27, STRESS PERIOD    7
 UBUDSV SAVING "  STORAGE CHANGE" ON UNIT 52 AT TIME STEP 27, STRESS PERIOD    7
 UBDSV4 SAVING "           AG WE" ON UNIT  52 AT TIME STEP 27, STRESS PERIOD   7

 HEAD WILL BE SAVED ON UNIT   51 AT END OF TIME STEP   27, STRESS PERIOD    7
 
 SOLVING FOR HEAD 

    ------------------------------------------------
       NWT REQUIRED            1 OUTER ITERATIONS 
       AND A TOTAL OF          2 INNER ITERATIONS.
    ------------------------------------------------

 OUTPUT CONTROL FOR STRESS PERIOD    7   TIME STEP   28
    SAVE HEAD FOR ALL LAYERS
    SAVE BUDGET
 UBDSV1 SAVING "         STORAGE" ON UNIT  52 AT TIME STEP 28, STRESS PERIOD   7
 UBDSV2 SAVING "   CONSTANT HEAD" ON UNIT  52 AT TIME STEP 28, STRESS PERIOD   7
 UBDSV1 SAVING "FLOW RIGHT FACE " ON UNIT  52 AT TIME STEP 28, STRESS PERIOD   7
 UBDSV1 SAVING "FLOW FRONT FACE " ON UNIT  52 AT TIME STEP 28, STRESS PERIOD   7
 UBDSV4 SAVING "  STREAM LEAKAGE" ON UNIT  52 AT TIME STEP 28, STRESS PERIOD   7



 UBUDSV SAVING "           GW ET" ON UNIT 52 AT TIME STEP 28, STRESS PERIOD    7
 UBUDSV SAVING "    UZF RECHARGE" ON UNIT 52 AT TIME STEP 28, STRESS PERIOD    7
 UBUDSV SAVING " SURFACE LEAKAGE" ON UNIT 52 AT TIME STEP 28, STRESS PERIOD    7
 UBUDSV SAVING "       HORT+DUNN" ON UNIT 52 AT TIME STEP 28, STRESS PERIOD    7
 UBUDSV SAVING "  STORAGE CHANGE" ON UNIT 52 AT TIME STEP 28, STRESS PERIOD    7
 UBDSV4 SAVING "           AG WE" ON UNIT  52 AT TIME STEP 28, STRESS PERIOD   7

 HEAD WILL BE SAVED ON UNIT   51 AT END OF TIME STEP   28, STRESS PERIOD    7
 
 SOLVING FOR HEAD 

    ------------------------------------------------
       NWT REQUIRED            1 OUTER ITERATIONS 
       AND A TOTAL OF          2 INNER ITERATIONS.
    ------------------------------------------------

 OUTPUT CONTROL FOR STRESS PERIOD    7   TIME STEP   29
    SAVE HEAD FOR ALL LAYERS
    SAVE BUDGET
 UBDSV1 SAVING "         STORAGE" ON UNIT  52 AT TIME STEP 29, STRESS PERIOD   7
 UBDSV2 SAVING "   CONSTANT HEAD" ON UNIT  52 AT TIME STEP 29, STRESS PERIOD   7
 UBDSV1 SAVING "FLOW RIGHT FACE " ON UNIT  52 AT TIME STEP 29, STRESS PERIOD   7
 UBDSV1 SAVING "FLOW FRONT FACE " ON UNIT  52 AT TIME STEP 29, STRESS PERIOD   7
 UBDSV4 SAVING "  STREAM LEAKAGE" ON UNIT  52 AT TIME STEP 29, STRESS PERIOD   7



 UBUDSV SAVING "           GW ET" ON UNIT 52 AT TIME STEP 29, STRESS PERIOD    7
 UBUDSV SAVING "    UZF RECHARGE" ON UNIT 52 AT TIME STEP 29, STRESS PERIOD    7
 UBUDSV SAVING " SURFACE LEAKAGE" ON UNIT 52 AT TIME STEP 29, STRESS PERIOD    7
 UBUDSV SAVING "       HORT+DUNN" ON UNIT 52 AT TIME STEP 29, STRESS PERIOD    7
 UBUDSV SAVING "  STORAGE CHANGE" ON UNIT 52 AT TIME STEP 29, STRESS PERIOD    7
 UBDSV4 SAVING "           AG WE" ON UNIT  52 AT TIME STEP 29, STRESS PERIOD   7

 HEAD WILL BE SAVED ON UNIT   51 AT END OF TIME STEP   29, STRESS PERIOD    7
 
 SOLVING FOR HEAD 

    ------------------------------------------------
       NWT REQUIRED            1 OUTER ITERATIONS 
       AND A TOTAL OF          2 INNER ITERATIONS.
    ------------------------------------------------

 OUTPUT CONTROL FOR STRESS PERIOD    7   TIME STEP   30
    SAVE HEAD FOR ALL LAYERS
    SAVE BUDGET
 UBDSV1 SAVING "         STORAGE" ON UNIT  52 AT TIME STEP 30, STRESS PERIOD   7
 UBDSV2 SAVING "   CONSTANT HEAD" ON UNIT  52 AT TIME STEP 30, STRESS PERIOD   7
 UBDSV1 SAVING "FLOW RIGHT FACE " ON UNIT  52 AT TIME STEP 30, STRESS PERIOD   7
 UBDSV1 SAVING "FLOW FRONT FACE " ON UNIT  52 AT TIME STEP 30, STRESS PERIOD   7
 UBDSV4 SAVING "  STREAM LEAKAGE" ON UNIT  52 AT TIME STEP 30, STRESS PERIOD   7



 UBUDSV SAVING "           GW ET" ON UNIT 52 AT TIME STEP 30, STRESS PERIOD    7
 UBUDSV SAVING "    UZF RECHARGE" ON UNIT 52 AT TIME STEP 30, STRESS PERIOD    7
 UBUDSV SAVING " SURFACE LEAKAGE" ON UNIT 52 AT TIME STEP 30, STRESS PERIOD    7
 UBUDSV SAVING "       HORT+DUNN" ON UNIT 52 AT TIME STEP 30, STRESS PERIOD    7
 UBUDSV SAVING "  STORAGE CHANGE" ON UNIT 52 AT TIME STEP 30, STRESS PERIOD    7
 UBDSV4 SAVING "           AG WE" ON UNIT  52 AT TIME STEP 30, STRESS PERIOD   7

 HEAD WILL BE SAVED ON UNIT   51 AT END OF TIME STEP   30, STRESS PERIOD    7
 
 SOLVING FOR HEAD 

    ------------------------------------------------
       NWT REQUIRED            1 OUTER ITERATIONS 
       AND A TOTAL OF          2 INNER ITERATIONS.
    ------------------------------------------------

 OUTPUT CONTROL FOR STRESS PERIOD    7   TIME STEP   31
    SAVE HEAD FOR ALL LAYERS
    SAVE BUDGET
 UBDSV1 SAVING "         STORAGE" ON UNIT  52 AT TIME STEP 31, STRESS PERIOD   7
 UBDSV2 SAVING "   CONSTANT HEAD" ON UNIT  52 AT TIME STEP 31, STRESS PERIOD   7
 UBDSV1 SAVING "FLOW RIGHT FACE " ON UNIT  52 AT TIME STEP 31, STRESS PERIOD   7
 UBDSV1 SAVING "FLOW FRONT FACE " ON UNIT  52 AT TIME STEP 31, STRESS PERIOD   7
 UBDSV4 SAVING "  STREAM LEAKAGE" ON UNIT  52 AT TIME STEP 31, STRESS PERIOD   7



 UBUDSV SAVING "           GW ET" ON UNIT 52 AT TIME STEP 31, STRESS PERIOD    7
 UBUDSV SAVING "    UZF RECHARGE" ON UNIT 52 AT TIME STEP 31, STRESS PERIOD    7
 UBUDSV SAVING " SURFACE LEAKAGE" ON UNIT 52 AT TIME STEP 31, STRESS PERIOD    7
 UBUDSV SAVING "       HORT+DUNN" ON UNIT 52 AT TIME STEP 31, STRESS PERIOD    7
 UBUDSV SAVING "  STORAGE CHANGE" ON UNIT 52 AT TIME STEP 31, STRESS PERIOD    7


UNSATURATED ZONE PACKAGE VOLUMETRIC BUDGET FOR  TIME STEP    31 STRESS PERIOD    7
  ------------------------------------------------------------------------------



     CUMULATIVE VOLUMES      L**3       RATES FOR THIS TIME STEP      L**3/T
     ------------------                 ------------------------

           IN:                                      IN:
           ---                                      ---
        INFILTRATION =      123341.2296          INFILTRATION =          69.3893

          OUT:                                     OUT:
          ----                                     ----
              UZF ET =      149189.1349                UZF ET =          68.9297
        UZF RECHARGE =        9245.6103          UZF RECHARGE =          12.3560

            IN - OUT =      -35093.5157              IN - OUT =         -11.8964

          STORAGE:                                 STORAGE:
          --------                                 --------
      STORAGE CHANGE =      -35093.7787        STORAGE CHANGE =         -11.8964

 PERCENT DISCREPANCY IS DIFFERENCE BETWEEN IN-OUT MINUS CHANGE IN STORAGE
 DIVIDED BY THE AVERAGE OF IN AND OUT TIMES 100

 PERCENT DISCREPANCY =           0.00     PERCENT DISCREPANCY =           0.00






 UBDSV4 SAVING "           AG WE" ON UNIT  52 AT TIME STEP 31, STRESS PERIOD   7
1
  VOLUMETRIC BUDGET FOR AGRICULTURAL FIELDS AT TIME STEP   31, STRESS PERIOD   7
  ------------------------------------------------------------------------------

     CUMULATIVE VOLUMES      L**3       RATES FOR THIS TIME STEP      L**3/T
     ------------------                 ------------------------

           IN:                                      IN:
           ---                                      ---
               AG WELLS  =        2319.9878                 AG WELLS  =          25.0026
      DIVERSION SEGMENTS =        2944.8608        DIVERSION SEGMENTS =          30.0000
           GW IRRIGATION =           0.0000             GW IRRIGATION =           0.0000
           SW IRRIGATION =           0.0000             SW IRRIGATION =           0.0000
        SYSTEM LOSSES GW =           0.0000          SYSTEM LOSSES GW =           0.0000
        SYSTEM LOSSES SW =           0.0000          SYSTEM LOSSES SW =           0.0000

                TOTAL IN =        5264.8486                  TOTAL IN =          55.0026

          OUT:                                     OUT:
          ----                                     ----
               AG WELLS  =           0.0000                 AG WELLS  =           0.0000
      DIVERSION SEGMENTS =           0.0000        DIVERSION SEGMENTS =           0.0000
           GW IRRIGATION =        2319.9878             GW IRRIGATION =          25.0026
           SW IRRIGATION =        2944.8608             SW IRRIGATION =          30.0000
        SYSTEM LOSSES GW =           0.0000          SYSTEM LOSSES GW =           0.0000
        SYSTEM LOSSES SW =           0.0000          SYSTEM LOSSES SW =           0.0000

               TOTAL OUT =        5264.8486                 TOTAL OUT =          55.0026

                IN - OUT =           0.0000                  IN - OUT =           0.0000

     PERCENT DISCREPANCY =           0.00         PERCENT DISCREPANCY =           0.00




 HEAD WILL BE SAVED ON UNIT   51 AT END OF TIME STEP   31, STRESS PERIOD    7
1
  VOLUMETRIC BUDGET FOR ENTIRE MODEL AT END OF TIME STEP   31, STRESS PERIOD   7
  ------------------------------------------------------------------------------

     CUMULATIVE VOLUMES      L**3       RATES FOR THIS TIME STEP      L**3/T
     ------------------                 ------------------------

           IN:                                      IN:
           ---                                      ---
             STORAGE     =         583.5671               STORAGE     =          11.7795
       CONSTANT HEAD     =           0.0000         CONSTANT HEAD     =           0.0000
      STREAM LEAKAGE     =          16.1169        STREAM LEAKAGE     =       7.6023E-02
        UZF RECHARGE     =        9245.6133          UZF RECHARGE     =          12.3560
               GW ET     =           0.0000                 GW ET     =           0.0000
     SURFACE LEAKAGE     =           0.0000       SURFACE LEAKAGE     =           0.0000
           AG WELLS      =           0.0000             AG WELLS      =           0.0000

                TOTAL IN =        9845.2969                  TOTAL IN =          24.2116

          OUT:                                     OUT:
          ----                                     ----
             STORAGE     =        6732.9434               STORAGE     =       9.7690E-02
       CONSTANT HEAD     =           0.0000         CONSTANT HEAD     =           0.0000
      STREAM LEAKAGE     =           0.0000        STREAM LEAKAGE     =           0.0000
        UZF RECHARGE     =           0.0000          UZF RECHARGE     =           0.0000
               GW ET     =           0.0000                 GW ET     =           0.0000
     SURFACE LEAKAGE     =           0.0000       SURFACE LEAKAGE     =           0.0000
           AG WELLS      =        2319.9878             AG WELLS      =          25.0026

               TOTAL OUT =        9052.9316                 TOTAL OUT =          25.1003

                IN - OUT =         792.3652                  IN - OUT =          -0.8888

     PERCENT DISCREPANCY =           8.39         PERCENT DISCREPANCY =          -3.60






         TIME SUMMARY AT END OF TIME STEP   31 IN STRESS PERIOD    7
                    SECONDS     MINUTES      HOURS       DAYS        YEARS
                    -----------------------------------------------------------
   TIME STEP LENGTH  86400.      1440.0      24.000      1.0000     2.73785E-03
 STRESS PERIOD TIME 2.67840E+06  44640.      744.00      31.000     8.48734E-02
         TOTAL TIME 1.83168E+07 3.05280E+05  5088.0      212.00     0.58042    
1
1
                            STRESS PERIOD NO.    8, LENGTH =   31.00000    
                            -----------------------------------------------

                              NUMBER OF TIME STEPS =    31

                               MULTIPLIER FOR DELT =     1.000

                            INITIAL TIME STEP SIZE =   1.000000    



 CLASSIFICATION & COUNT OF STREAM SEGMENTS BASED ON SOURCE OF INFLOW:

                HEADWATER     DIVERSION     RECEIVES TRIBUTARY FLOW
                ---------     ---------     -----------------------
                     1              2               9



                    INPUT DATA FOR EACH STREAM SEGMENT
 ---------------------------------------------------------------------------------------------

 SEGMENT    SEG.     INFLOW   OVERLAND   STREAM    STREAM   ICALC  OUTFLOW  DIVERSION PRIORITY
    NO.    LENGTH     RATE     RUNOFF      ET       PPT.    METH.  TO SEG.  FROM SEG.    NO.

      1  1.000E+02 5.000E+01 0.000E+00 0.000E+00 0.000E+00    1        2        0        0
      2  1.000E+02 0.000E+00 0.000E+00 0.000E+00 0.000E+00    1        3        0        0
      3  1.000E+02 0.000E+00 0.000E+00 0.000E+00 0.000E+00    1        4        0        0
      4  1.000E+02 0.000E+00 0.000E+00 0.000E+00 0.000E+00    1        5        0        0
      5  1.000E+02 0.000E+00 0.000E+00 0.000E+00 0.000E+00    1        6        0        0
      6  1.000E+02 0.000E+00 0.000E+00 0.000E+00 0.000E+00    1        7        0        0
      7  1.000E+02 0.000E+00 0.000E+00 0.000E+00 0.000E+00    1        8        0        0
      8  1.000E+02 0.000E+00 0.000E+00 0.000E+00 0.000E+00    1        9        0        0
      9  1.000E+02 0.000E+00 0.000E+00 0.000E+00 0.000E+00    1       10        0        0
     10  1.000E+02 0.000E+00 0.000E+00 0.000E+00 0.000E+00    1        0        0        0
     11  1.000E+02 2.000E+01 0.000E+00 0.000E+00 0.000E+00    1        0        3        0
     12  1.000E+02 1.000E+01 0.000E+00 0.000E+00 0.000E+00    1        0        5        0


         STREAMBED PROPERTIES AND STREAM DIMENSIONS

 SEGMENT     BED HYD. COND.      BED THICKNESS     ELEV.-TOP OF BED     WIDTH OF STREAM     DEPTH OF STREAM    STREAM ROUGHNESS
    No.     UPPER     LOWER     UPPER     LOWER     UPPER     LOWER     UPPER     LOWER     UPPER     LOWER   CHANNEL      BANK

     1  1.500E-05 1.500E-05 5.000E-01 5.000E-01 9.900E+01 9.898E+01 5.000E+00 5.000E+00                     3.000E-02
     2  1.500E-05 1.500E-05 5.000E-01 5.000E-01 9.898E+01 9.896E+01 5.000E+00 5.000E+00                     3.000E-02
     3  1.500E-05 1.500E-05 5.000E-01 5.000E-01 9.896E+01 9.894E+01 5.000E+00 5.000E+00                     3.000E-02
     4  1.500E-05 1.500E-05 5.000E-01 5.000E-01 9.894E+01 9.892E+01 5.000E+00 5.000E+00                     3.000E-02
     5  1.500E-05 1.500E-05 5.000E-01 5.000E-01 9.892E+01 9.890E+01 5.000E+00 5.000E+00                     3.000E-02
     6  1.500E-05 1.500E-05 5.000E-01 5.000E-01 9.890E+01 9.888E+01 5.000E+00 5.000E+00                     3.000E-02
     7  1.500E-05 1.500E-05 5.000E-01 5.000E-01 9.888E+01 9.886E+01 5.000E+00 5.000E+00                     3.000E-02
     8  1.500E-05 1.500E-05 5.000E-01 5.000E-01 9.886E+01 9.884E+01 5.000E+00 5.000E+00                     3.000E-02
     9  1.500E-05 1.500E-05 5.000E-01 5.000E-01 9.884E+01 9.882E+01 5.000E+00 5.000E+00                     3.000E-02
    10  1.500E-05 1.500E-05 5.000E-01 5.000E-01 9.882E+01 9.880E+01 5.000E+00 5.000E+00                     3.000E-02
    11  1.500E-05 1.500E-05 5.000E-01 5.000E-01 9.894E+01 9.892E+01 5.000E+00 5.000E+00                     3.000E-02
    12  1.500E-05 1.500E-05 5.000E-01 5.000E-01 9.890E+01 9.888E+01 5.000E+00 5.000E+00                     3.000E-02






            AREAL INFILTRATION RATE
 READING ON UNIT   19 WITH FORMAT: (10E15.6)           



                            ET RATE
 READING ON UNIT   19 WITH FORMAT: (10E15.6)           



                ET EXTINCTION DEPTH
 READING ON UNIT   19 WITH FORMAT: (10E15.6)           



           EXTINCTION WATER CONTENT
 READING ON UNIT   19 WITH FORMAT: (10E15.6)           

 PROCESSING AG STRESS PERIOD DATA

 READING AG STRESS PERIOD DATA

 READING IRRIGATION SEGMENT

 READING IRRIGATION WELL

 READING SUPPLEMENTAL WELL

 END PROCESSING AG STRESS PERIOD DATA OPTIONS
 
 SOLVING FOR HEAD 

    ------------------------------------------------
       NWT REQUIRED            1 OUTER ITERATIONS 
       AND A TOTAL OF          2 INNER ITERATIONS.
    ------------------------------------------------

 OUTPUT CONTROL FOR STRESS PERIOD    8   TIME STEP    1
    SAVE HEAD FOR ALL LAYERS
    SAVE BUDGET
 UBDSV1 SAVING "         STORAGE" ON UNIT  52 AT TIME STEP  1, STRESS PERIOD   8
 UBDSV2 SAVING "   CONSTANT HEAD" ON UNIT  52 AT TIME STEP  1, STRESS PERIOD   8
 UBDSV1 SAVING "FLOW RIGHT FACE " ON UNIT  52 AT TIME STEP  1, STRESS PERIOD   8
 UBDSV1 SAVING "FLOW FRONT FACE " ON UNIT  52 AT TIME STEP  1, STRESS PERIOD   8
 UBDSV4 SAVING "  STREAM LEAKAGE" ON UNIT  52 AT TIME STEP  1, STRESS PERIOD   8



 UBUDSV SAVING "           GW ET" ON UNIT 52 AT TIME STEP  1, STRESS PERIOD    8
 UBUDSV SAVING "    UZF RECHARGE" ON UNIT 52 AT TIME STEP  1, STRESS PERIOD    8
 UBUDSV SAVING " SURFACE LEAKAGE" ON UNIT 52 AT TIME STEP  1, STRESS PERIOD    8
 UBUDSV SAVING "       HORT+DUNN" ON UNIT 52 AT TIME STEP  1, STRESS PERIOD    8
 UBUDSV SAVING "  STORAGE CHANGE" ON UNIT 52 AT TIME STEP  1, STRESS PERIOD    8
 UBDSV4 SAVING "           AG WE" ON UNIT  52 AT TIME STEP  1, STRESS PERIOD   8

 HEAD WILL BE SAVED ON UNIT   51 AT END OF TIME STEP    1, STRESS PERIOD    8
 
 SOLVING FOR HEAD 

    ------------------------------------------------
       NWT REQUIRED            1 OUTER ITERATIONS 
       AND A TOTAL OF          2 INNER ITERATIONS.
    ------------------------------------------------

 OUTPUT CONTROL FOR STRESS PERIOD    8   TIME STEP    2
    SAVE HEAD FOR ALL LAYERS
    SAVE BUDGET
 UBDSV1 SAVING "         STORAGE" ON UNIT  52 AT TIME STEP  2, STRESS PERIOD   8
 UBDSV2 SAVING "   CONSTANT HEAD" ON UNIT  52 AT TIME STEP  2, STRESS PERIOD   8
 UBDSV1 SAVING "FLOW RIGHT FACE " ON UNIT  52 AT TIME STEP  2, STRESS PERIOD   8
 UBDSV1 SAVING "FLOW FRONT FACE " ON UNIT  52 AT TIME STEP  2, STRESS PERIOD   8
 UBDSV4 SAVING "  STREAM LEAKAGE" ON UNIT  52 AT TIME STEP  2, STRESS PERIOD   8



 UBUDSV SAVING "           GW ET" ON UNIT 52 AT TIME STEP  2, STRESS PERIOD    8
 UBUDSV SAVING "    UZF RECHARGE" ON UNIT 52 AT TIME STEP  2, STRESS PERIOD    8
 UBUDSV SAVING " SURFACE LEAKAGE" ON UNIT 52 AT TIME STEP  2, STRESS PERIOD    8
 UBUDSV SAVING "       HORT+DUNN" ON UNIT 52 AT TIME STEP  2, STRESS PERIOD    8
 UBUDSV SAVING "  STORAGE CHANGE" ON UNIT 52 AT TIME STEP  2, STRESS PERIOD    8
 UBDSV4 SAVING "           AG WE" ON UNIT  52 AT TIME STEP  2, STRESS PERIOD   8

 HEAD WILL BE SAVED ON UNIT   51 AT END OF TIME STEP    2, STRESS PERIOD    8
 
 SOLVING FOR HEAD 

    ------------------------------------------------
       NWT REQUIRED            1 OUTER ITERATIONS 
       AND A TOTAL OF          2 INNER ITERATIONS.
    ------------------------------------------------

 OUTPUT CONTROL FOR STRESS PERIOD    8   TIME STEP    3
    SAVE HEAD FOR ALL LAYERS
    SAVE BUDGET
 UBDSV1 SAVING "         STORAGE" ON UNIT  52 AT TIME STEP  3, STRESS PERIOD   8
 UBDSV2 SAVING "   CONSTANT HEAD" ON UNIT  52 AT TIME STEP  3, STRESS PERIOD   8
 UBDSV1 SAVING "FLOW RIGHT FACE " ON UNIT  52 AT TIME STEP  3, STRESS PERIOD   8
 UBDSV1 SAVING "FLOW FRONT FACE " ON UNIT  52 AT TIME STEP  3, STRESS PERIOD   8
 UBDSV4 SAVING "  STREAM LEAKAGE" ON UNIT  52 AT TIME STEP  3, STRESS PERIOD   8



 UBUDSV SAVING "           GW ET" ON UNIT 52 AT TIME STEP  3, STRESS PERIOD    8
 UBUDSV SAVING "    UZF RECHARGE" ON UNIT 52 AT TIME STEP  3, STRESS PERIOD    8
 UBUDSV SAVING " SURFACE LEAKAGE" ON UNIT 52 AT TIME STEP  3, STRESS PERIOD    8
 UBUDSV SAVING "       HORT+DUNN" ON UNIT 52 AT TIME STEP  3, STRESS PERIOD    8
 UBUDSV SAVING "  STORAGE CHANGE" ON UNIT 52 AT TIME STEP  3, STRESS PERIOD    8
 UBDSV4 SAVING "           AG WE" ON UNIT  52 AT TIME STEP  3, STRESS PERIOD   8

 HEAD WILL BE SAVED ON UNIT   51 AT END OF TIME STEP    3, STRESS PERIOD    8
 
 SOLVING FOR HEAD 

    ------------------------------------------------
       NWT REQUIRED            1 OUTER ITERATIONS 
       AND A TOTAL OF          2 INNER ITERATIONS.
    ------------------------------------------------

 OUTPUT CONTROL FOR STRESS PERIOD    8   TIME STEP    4
    SAVE HEAD FOR ALL LAYERS
    SAVE BUDGET
 UBDSV1 SAVING "         STORAGE" ON UNIT  52 AT TIME STEP  4, STRESS PERIOD   8
 UBDSV2 SAVING "   CONSTANT HEAD" ON UNIT  52 AT TIME STEP  4, STRESS PERIOD   8
 UBDSV1 SAVING "FLOW RIGHT FACE " ON UNIT  52 AT TIME STEP  4, STRESS PERIOD   8
 UBDSV1 SAVING "FLOW FRONT FACE " ON UNIT  52 AT TIME STEP  4, STRESS PERIOD   8
 UBDSV4 SAVING "  STREAM LEAKAGE" ON UNIT  52 AT TIME STEP  4, STRESS PERIOD   8



 UBUDSV SAVING "           GW ET" ON UNIT 52 AT TIME STEP  4, STRESS PERIOD    8
 UBUDSV SAVING "    UZF RECHARGE" ON UNIT 52 AT TIME STEP  4, STRESS PERIOD    8
 UBUDSV SAVING " SURFACE LEAKAGE" ON UNIT 52 AT TIME STEP  4, STRESS PERIOD    8
 UBUDSV SAVING "       HORT+DUNN" ON UNIT 52 AT TIME STEP  4, STRESS PERIOD    8
 UBUDSV SAVING "  STORAGE CHANGE" ON UNIT 52 AT TIME STEP  4, STRESS PERIOD    8
 UBDSV4 SAVING "           AG WE" ON UNIT  52 AT TIME STEP  4, STRESS PERIOD   8

 HEAD WILL BE SAVED ON UNIT   51 AT END OF TIME STEP    4, STRESS PERIOD    8
 
 SOLVING FOR HEAD 

    ------------------------------------------------
       NWT REQUIRED            1 OUTER ITERATIONS 
       AND A TOTAL OF          2 INNER ITERATIONS.
    ------------------------------------------------

 OUTPUT CONTROL FOR STRESS PERIOD    8   TIME STEP    5
    SAVE HEAD FOR ALL LAYERS
    SAVE BUDGET
 UBDSV1 SAVING "         STORAGE" ON UNIT  52 AT TIME STEP  5, STRESS PERIOD   8
 UBDSV2 SAVING "   CONSTANT HEAD" ON UNIT  52 AT TIME STEP  5, STRESS PERIOD   8
 UBDSV1 SAVING "FLOW RIGHT FACE " ON UNIT  52 AT TIME STEP  5, STRESS PERIOD   8
 UBDSV1 SAVING "FLOW FRONT FACE " ON UNIT  52 AT TIME STEP  5, STRESS PERIOD   8
 UBDSV4 SAVING "  STREAM LEAKAGE" ON UNIT  52 AT TIME STEP  5, STRESS PERIOD   8



 UBUDSV SAVING "           GW ET" ON UNIT 52 AT TIME STEP  5, STRESS PERIOD    8
 UBUDSV SAVING "    UZF RECHARGE" ON UNIT 52 AT TIME STEP  5, STRESS PERIOD    8
 UBUDSV SAVING " SURFACE LEAKAGE" ON UNIT 52 AT TIME STEP  5, STRESS PERIOD    8
 UBUDSV SAVING "       HORT+DUNN" ON UNIT 52 AT TIME STEP  5, STRESS PERIOD    8
 UBUDSV SAVING "  STORAGE CHANGE" ON UNIT 52 AT TIME STEP  5, STRESS PERIOD    8
 UBDSV4 SAVING "           AG WE" ON UNIT  52 AT TIME STEP  5, STRESS PERIOD   8

 HEAD WILL BE SAVED ON UNIT   51 AT END OF TIME STEP    5, STRESS PERIOD    8
 
 SOLVING FOR HEAD 

    ------------------------------------------------
       NWT REQUIRED            1 OUTER ITERATIONS 
       AND A TOTAL OF          2 INNER ITERATIONS.
    ------------------------------------------------

 OUTPUT CONTROL FOR STRESS PERIOD    8   TIME STEP    6
    SAVE HEAD FOR ALL LAYERS
    SAVE BUDGET
 UBDSV1 SAVING "         STORAGE" ON UNIT  52 AT TIME STEP  6, STRESS PERIOD   8
 UBDSV2 SAVING "   CONSTANT HEAD" ON UNIT  52 AT TIME STEP  6, STRESS PERIOD   8
 UBDSV1 SAVING "FLOW RIGHT FACE " ON UNIT  52 AT TIME STEP  6, STRESS PERIOD   8
 UBDSV1 SAVING "FLOW FRONT FACE " ON UNIT  52 AT TIME STEP  6, STRESS PERIOD   8
 UBDSV4 SAVING "  STREAM LEAKAGE" ON UNIT  52 AT TIME STEP  6, STRESS PERIOD   8



 UBUDSV SAVING "           GW ET" ON UNIT 52 AT TIME STEP  6, STRESS PERIOD    8
 UBUDSV SAVING "    UZF RECHARGE" ON UNIT 52 AT TIME STEP  6, STRESS PERIOD    8
 UBUDSV SAVING " SURFACE LEAKAGE" ON UNIT 52 AT TIME STEP  6, STRESS PERIOD    8
 UBUDSV SAVING "       HORT+DUNN" ON UNIT 52 AT TIME STEP  6, STRESS PERIOD    8
 UBUDSV SAVING "  STORAGE CHANGE" ON UNIT 52 AT TIME STEP  6, STRESS PERIOD    8
 UBDSV4 SAVING "           AG WE" ON UNIT  52 AT TIME STEP  6, STRESS PERIOD   8

 HEAD WILL BE SAVED ON UNIT   51 AT END OF TIME STEP    6, STRESS PERIOD    8
 
 SOLVING FOR HEAD 

    ------------------------------------------------
       NWT REQUIRED            1 OUTER ITERATIONS 
       AND A TOTAL OF          2 INNER ITERATIONS.
    ------------------------------------------------

 OUTPUT CONTROL FOR STRESS PERIOD    8   TIME STEP    7
    SAVE HEAD FOR ALL LAYERS
    SAVE BUDGET
 UBDSV1 SAVING "         STORAGE" ON UNIT  52 AT TIME STEP  7, STRESS PERIOD   8
 UBDSV2 SAVING "   CONSTANT HEAD" ON UNIT  52 AT TIME STEP  7, STRESS PERIOD   8
 UBDSV1 SAVING "FLOW RIGHT FACE " ON UNIT  52 AT TIME STEP  7, STRESS PERIOD   8
 UBDSV1 SAVING "FLOW FRONT FACE " ON UNIT  52 AT TIME STEP  7, STRESS PERIOD   8
 UBDSV4 SAVING "  STREAM LEAKAGE" ON UNIT  52 AT TIME STEP  7, STRESS PERIOD   8



 UBUDSV SAVING "           GW ET" ON UNIT 52 AT TIME STEP  7, STRESS PERIOD    8
 UBUDSV SAVING "    UZF RECHARGE" ON UNIT 52 AT TIME STEP  7, STRESS PERIOD    8
 UBUDSV SAVING " SURFACE LEAKAGE" ON UNIT 52 AT TIME STEP  7, STRESS PERIOD    8
 UBUDSV SAVING "       HORT+DUNN" ON UNIT 52 AT TIME STEP  7, STRESS PERIOD    8
 UBUDSV SAVING "  STORAGE CHANGE" ON UNIT 52 AT TIME STEP  7, STRESS PERIOD    8
 UBDSV4 SAVING "           AG WE" ON UNIT  52 AT TIME STEP  7, STRESS PERIOD   8

 HEAD WILL BE SAVED ON UNIT   51 AT END OF TIME STEP    7, STRESS PERIOD    8
 
 SOLVING FOR HEAD 

    ------------------------------------------------
       NWT REQUIRED            1 OUTER ITERATIONS 
       AND A TOTAL OF          2 INNER ITERATIONS.
    ------------------------------------------------

 OUTPUT CONTROL FOR STRESS PERIOD    8   TIME STEP    8
    SAVE HEAD FOR ALL LAYERS
    SAVE BUDGET
 UBDSV1 SAVING "         STORAGE" ON UNIT  52 AT TIME STEP  8, STRESS PERIOD   8
 UBDSV2 SAVING "   CONSTANT HEAD" ON UNIT  52 AT TIME STEP  8, STRESS PERIOD   8
 UBDSV1 SAVING "FLOW RIGHT FACE " ON UNIT  52 AT TIME STEP  8, STRESS PERIOD   8
 UBDSV1 SAVING "FLOW FRONT FACE " ON UNIT  52 AT TIME STEP  8, STRESS PERIOD   8
 UBDSV4 SAVING "  STREAM LEAKAGE" ON UNIT  52 AT TIME STEP  8, STRESS PERIOD   8



 UBUDSV SAVING "           GW ET" ON UNIT 52 AT TIME STEP  8, STRESS PERIOD    8
 UBUDSV SAVING "    UZF RECHARGE" ON UNIT 52 AT TIME STEP  8, STRESS PERIOD    8
 UBUDSV SAVING " SURFACE LEAKAGE" ON UNIT 52 AT TIME STEP  8, STRESS PERIOD    8
 UBUDSV SAVING "       HORT+DUNN" ON UNIT 52 AT TIME STEP  8, STRESS PERIOD    8
 UBUDSV SAVING "  STORAGE CHANGE" ON UNIT 52 AT TIME STEP  8, STRESS PERIOD    8
 UBDSV4 SAVING "           AG WE" ON UNIT  52 AT TIME STEP  8, STRESS PERIOD   8

 HEAD WILL BE SAVED ON UNIT   51 AT END OF TIME STEP    8, STRESS PERIOD    8
 
 SOLVING FOR HEAD 

    ------------------------------------------------
       NWT REQUIRED            1 OUTER ITERATIONS 
       AND A TOTAL OF          2 INNER ITERATIONS.
    ------------------------------------------------

 OUTPUT CONTROL FOR STRESS PERIOD    8   TIME STEP    9
    SAVE HEAD FOR ALL LAYERS
    SAVE BUDGET
 UBDSV1 SAVING "         STORAGE" ON UNIT  52 AT TIME STEP  9, STRESS PERIOD   8
 UBDSV2 SAVING "   CONSTANT HEAD" ON UNIT  52 AT TIME STEP  9, STRESS PERIOD   8
 UBDSV1 SAVING "FLOW RIGHT FACE " ON UNIT  52 AT TIME STEP  9, STRESS PERIOD   8
 UBDSV1 SAVING "FLOW FRONT FACE " ON UNIT  52 AT TIME STEP  9, STRESS PERIOD   8
 UBDSV4 SAVING "  STREAM LEAKAGE" ON UNIT  52 AT TIME STEP  9, STRESS PERIOD   8



 UBUDSV SAVING "           GW ET" ON UNIT 52 AT TIME STEP  9, STRESS PERIOD    8
 UBUDSV SAVING "    UZF RECHARGE" ON UNIT 52 AT TIME STEP  9, STRESS PERIOD    8
 UBUDSV SAVING " SURFACE LEAKAGE" ON UNIT 52 AT TIME STEP  9, STRESS PERIOD    8
 UBUDSV SAVING "       HORT+DUNN" ON UNIT 52 AT TIME STEP  9, STRESS PERIOD    8
 UBUDSV SAVING "  STORAGE CHANGE" ON UNIT 52 AT TIME STEP  9, STRESS PERIOD    8
 UBDSV4 SAVING "           AG WE" ON UNIT  52 AT TIME STEP  9, STRESS PERIOD   8

 HEAD WILL BE SAVED ON UNIT   51 AT END OF TIME STEP    9, STRESS PERIOD    8
 
 SOLVING FOR HEAD 

    ------------------------------------------------
       NWT REQUIRED            1 OUTER ITERATIONS 
       AND A TOTAL OF          2 INNER ITERATIONS.
    ------------------------------------------------

 OUTPUT CONTROL FOR STRESS PERIOD    8   TIME STEP   10
    SAVE HEAD FOR ALL LAYERS
    SAVE BUDGET
 UBDSV1 SAVING "         STORAGE" ON UNIT  52 AT TIME STEP 10, STRESS PERIOD   8
 UBDSV2 SAVING "   CONSTANT HEAD" ON UNIT  52 AT TIME STEP 10, STRESS PERIOD   8
 UBDSV1 SAVING "FLOW RIGHT FACE " ON UNIT  52 AT TIME STEP 10, STRESS PERIOD   8
 UBDSV1 SAVING "FLOW FRONT FACE " ON UNIT  52 AT TIME STEP 10, STRESS PERIOD   8
 UBDSV4 SAVING "  STREAM LEAKAGE" ON UNIT  52 AT TIME STEP 10, STRESS PERIOD   8



 UBUDSV SAVING "           GW ET" ON UNIT 52 AT TIME STEP 10, STRESS PERIOD    8
 UBUDSV SAVING "    UZF RECHARGE" ON UNIT 52 AT TIME STEP 10, STRESS PERIOD    8
 UBUDSV SAVING " SURFACE LEAKAGE" ON UNIT 52 AT TIME STEP 10, STRESS PERIOD    8
 UBUDSV SAVING "       HORT+DUNN" ON UNIT 52 AT TIME STEP 10, STRESS PERIOD    8
 UBUDSV SAVING "  STORAGE CHANGE" ON UNIT 52 AT TIME STEP 10, STRESS PERIOD    8
 UBDSV4 SAVING "           AG WE" ON UNIT  52 AT TIME STEP 10, STRESS PERIOD   8

 HEAD WILL BE SAVED ON UNIT   51 AT END OF TIME STEP   10, STRESS PERIOD    8
 
 SOLVING FOR HEAD 

    ------------------------------------------------
       NWT REQUIRED            1 OUTER ITERATIONS 
       AND A TOTAL OF          2 INNER ITERATIONS.
    ------------------------------------------------

 OUTPUT CONTROL FOR STRESS PERIOD    8   TIME STEP   11
    SAVE HEAD FOR ALL LAYERS
    SAVE BUDGET
 UBDSV1 SAVING "         STORAGE" ON UNIT  52 AT TIME STEP 11, STRESS PERIOD   8
 UBDSV2 SAVING "   CONSTANT HEAD" ON UNIT  52 AT TIME STEP 11, STRESS PERIOD   8
 UBDSV1 SAVING "FLOW RIGHT FACE " ON UNIT  52 AT TIME STEP 11, STRESS PERIOD   8
 UBDSV1 SAVING "FLOW FRONT FACE " ON UNIT  52 AT TIME STEP 11, STRESS PERIOD   8
 UBDSV4 SAVING "  STREAM LEAKAGE" ON UNIT  52 AT TIME STEP 11, STRESS PERIOD   8



 UBUDSV SAVING "           GW ET" ON UNIT 52 AT TIME STEP 11, STRESS PERIOD    8
 UBUDSV SAVING "    UZF RECHARGE" ON UNIT 52 AT TIME STEP 11, STRESS PERIOD    8
 UBUDSV SAVING " SURFACE LEAKAGE" ON UNIT 52 AT TIME STEP 11, STRESS PERIOD    8
 UBUDSV SAVING "       HORT+DUNN" ON UNIT 52 AT TIME STEP 11, STRESS PERIOD    8
 UBUDSV SAVING "  STORAGE CHANGE" ON UNIT 52 AT TIME STEP 11, STRESS PERIOD    8
 UBDSV4 SAVING "           AG WE" ON UNIT  52 AT TIME STEP 11, STRESS PERIOD   8

 HEAD WILL BE SAVED ON UNIT   51 AT END OF TIME STEP   11, STRESS PERIOD    8
 
 SOLVING FOR HEAD 

    ------------------------------------------------
       NWT REQUIRED            1 OUTER ITERATIONS 
       AND A TOTAL OF          2 INNER ITERATIONS.
    ------------------------------------------------

 OUTPUT CONTROL FOR STRESS PERIOD    8   TIME STEP   12
    SAVE HEAD FOR ALL LAYERS
    SAVE BUDGET
 UBDSV1 SAVING "         STORAGE" ON UNIT  52 AT TIME STEP 12, STRESS PERIOD   8
 UBDSV2 SAVING "   CONSTANT HEAD" ON UNIT  52 AT TIME STEP 12, STRESS PERIOD   8
 UBDSV1 SAVING "FLOW RIGHT FACE " ON UNIT  52 AT TIME STEP 12, STRESS PERIOD   8
 UBDSV1 SAVING "FLOW FRONT FACE " ON UNIT  52 AT TIME STEP 12, STRESS PERIOD   8
 UBDSV4 SAVING "  STREAM LEAKAGE" ON UNIT  52 AT TIME STEP 12, STRESS PERIOD   8



 UBUDSV SAVING "           GW ET" ON UNIT 52 AT TIME STEP 12, STRESS PERIOD    8
 UBUDSV SAVING "    UZF RECHARGE" ON UNIT 52 AT TIME STEP 12, STRESS PERIOD    8
 UBUDSV SAVING " SURFACE LEAKAGE" ON UNIT 52 AT TIME STEP 12, STRESS PERIOD    8
 UBUDSV SAVING "       HORT+DUNN" ON UNIT 52 AT TIME STEP 12, STRESS PERIOD    8
 UBUDSV SAVING "  STORAGE CHANGE" ON UNIT 52 AT TIME STEP 12, STRESS PERIOD    8
 UBDSV4 SAVING "           AG WE" ON UNIT  52 AT TIME STEP 12, STRESS PERIOD   8

 HEAD WILL BE SAVED ON UNIT   51 AT END OF TIME STEP   12, STRESS PERIOD    8
 
 SOLVING FOR HEAD 

    ------------------------------------------------
       NWT REQUIRED            1 OUTER ITERATIONS 
       AND A TOTAL OF          2 INNER ITERATIONS.
    ------------------------------------------------

 OUTPUT CONTROL FOR STRESS PERIOD    8   TIME STEP   13
    SAVE HEAD FOR ALL LAYERS
    SAVE BUDGET
 UBDSV1 SAVING "         STORAGE" ON UNIT  52 AT TIME STEP 13, STRESS PERIOD   8
 UBDSV2 SAVING "   CONSTANT HEAD" ON UNIT  52 AT TIME STEP 13, STRESS PERIOD   8
 UBDSV1 SAVING "FLOW RIGHT FACE " ON UNIT  52 AT TIME STEP 13, STRESS PERIOD   8
 UBDSV1 SAVING "FLOW FRONT FACE " ON UNIT  52 AT TIME STEP 13, STRESS PERIOD   8
 UBDSV4 SAVING "  STREAM LEAKAGE" ON UNIT  52 AT TIME STEP 13, STRESS PERIOD   8



 UBUDSV SAVING "           GW ET" ON UNIT 52 AT TIME STEP 13, STRESS PERIOD    8
 UBUDSV SAVING "    UZF RECHARGE" ON UNIT 52 AT TIME STEP 13, STRESS PERIOD    8
 UBUDSV SAVING " SURFACE LEAKAGE" ON UNIT 52 AT TIME STEP 13, STRESS PERIOD    8
 UBUDSV SAVING "       HORT+DUNN" ON UNIT 52 AT TIME STEP 13, STRESS PERIOD    8
 UBUDSV SAVING "  STORAGE CHANGE" ON UNIT 52 AT TIME STEP 13, STRESS PERIOD    8
 UBDSV4 SAVING "           AG WE" ON UNIT  52 AT TIME STEP 13, STRESS PERIOD   8

 HEAD WILL BE SAVED ON UNIT   51 AT END OF TIME STEP   13, STRESS PERIOD    8
 
 SOLVING FOR HEAD 

    ------------------------------------------------
       NWT REQUIRED            1 OUTER ITERATIONS 
       AND A TOTAL OF          2 INNER ITERATIONS.
    ------------------------------------------------

 OUTPUT CONTROL FOR STRESS PERIOD    8   TIME STEP   14
    SAVE HEAD FOR ALL LAYERS
    SAVE BUDGET
 UBDSV1 SAVING "         STORAGE" ON UNIT  52 AT TIME STEP 14, STRESS PERIOD   8
 UBDSV2 SAVING "   CONSTANT HEAD" ON UNIT  52 AT TIME STEP 14, STRESS PERIOD   8
 UBDSV1 SAVING "FLOW RIGHT FACE " ON UNIT  52 AT TIME STEP 14, STRESS PERIOD   8
 UBDSV1 SAVING "FLOW FRONT FACE " ON UNIT  52 AT TIME STEP 14, STRESS PERIOD   8
 UBDSV4 SAVING "  STREAM LEAKAGE" ON UNIT  52 AT TIME STEP 14, STRESS PERIOD   8



 UBUDSV SAVING "           GW ET" ON UNIT 52 AT TIME STEP 14, STRESS PERIOD    8
 UBUDSV SAVING "    UZF RECHARGE" ON UNIT 52 AT TIME STEP 14, STRESS PERIOD    8
 UBUDSV SAVING " SURFACE LEAKAGE" ON UNIT 52 AT TIME STEP 14, STRESS PERIOD    8
 UBUDSV SAVING "       HORT+DUNN" ON UNIT 52 AT TIME STEP 14, STRESS PERIOD    8
 UBUDSV SAVING "  STORAGE CHANGE" ON UNIT 52 AT TIME STEP 14, STRESS PERIOD    8
 UBDSV4 SAVING "           AG WE" ON UNIT  52 AT TIME STEP 14, STRESS PERIOD   8

 HEAD WILL BE SAVED ON UNIT   51 AT END OF TIME STEP   14, STRESS PERIOD    8
 
 SOLVING FOR HEAD 

    ------------------------------------------------
       NWT REQUIRED            1 OUTER ITERATIONS 
       AND A TOTAL OF          2 INNER ITERATIONS.
    ------------------------------------------------

 OUTPUT CONTROL FOR STRESS PERIOD    8   TIME STEP   15
    SAVE HEAD FOR ALL LAYERS
    SAVE BUDGET
 UBDSV1 SAVING "         STORAGE" ON UNIT  52 AT TIME STEP 15, STRESS PERIOD   8
 UBDSV2 SAVING "   CONSTANT HEAD" ON UNIT  52 AT TIME STEP 15, STRESS PERIOD   8
 UBDSV1 SAVING "FLOW RIGHT FACE " ON UNIT  52 AT TIME STEP 15, STRESS PERIOD   8
 UBDSV1 SAVING "FLOW FRONT FACE " ON UNIT  52 AT TIME STEP 15, STRESS PERIOD   8
 UBDSV4 SAVING "  STREAM LEAKAGE" ON UNIT  52 AT TIME STEP 15, STRESS PERIOD   8



 UBUDSV SAVING "           GW ET" ON UNIT 52 AT TIME STEP 15, STRESS PERIOD    8
 UBUDSV SAVING "    UZF RECHARGE" ON UNIT 52 AT TIME STEP 15, STRESS PERIOD    8
 UBUDSV SAVING " SURFACE LEAKAGE" ON UNIT 52 AT TIME STEP 15, STRESS PERIOD    8
 UBUDSV SAVING "       HORT+DUNN" ON UNIT 52 AT TIME STEP 15, STRESS PERIOD    8
 UBUDSV SAVING "  STORAGE CHANGE" ON UNIT 52 AT TIME STEP 15, STRESS PERIOD    8
 UBDSV4 SAVING "           AG WE" ON UNIT  52 AT TIME STEP 15, STRESS PERIOD   8

 HEAD WILL BE SAVED ON UNIT   51 AT END OF TIME STEP   15, STRESS PERIOD    8
 
 SOLVING FOR HEAD 

    ------------------------------------------------
       NWT REQUIRED            1 OUTER ITERATIONS 
       AND A TOTAL OF          2 INNER ITERATIONS.
    ------------------------------------------------

 OUTPUT CONTROL FOR STRESS PERIOD    8   TIME STEP   16
    SAVE HEAD FOR ALL LAYERS
    SAVE BUDGET
 UBDSV1 SAVING "         STORAGE" ON UNIT  52 AT TIME STEP 16, STRESS PERIOD   8
 UBDSV2 SAVING "   CONSTANT HEAD" ON UNIT  52 AT TIME STEP 16, STRESS PERIOD   8
 UBDSV1 SAVING "FLOW RIGHT FACE " ON UNIT  52 AT TIME STEP 16, STRESS PERIOD   8
 UBDSV1 SAVING "FLOW FRONT FACE " ON UNIT  52 AT TIME STEP 16, STRESS PERIOD   8
 UBDSV4 SAVING "  STREAM LEAKAGE" ON UNIT  52 AT TIME STEP 16, STRESS PERIOD   8



 UBUDSV SAVING "           GW ET" ON UNIT 52 AT TIME STEP 16, STRESS PERIOD    8
 UBUDSV SAVING "    UZF RECHARGE" ON UNIT 52 AT TIME STEP 16, STRESS PERIOD    8
 UBUDSV SAVING " SURFACE LEAKAGE" ON UNIT 52 AT TIME STEP 16, STRESS PERIOD    8
 UBUDSV SAVING "       HORT+DUNN" ON UNIT 52 AT TIME STEP 16, STRESS PERIOD    8
 UBUDSV SAVING "  STORAGE CHANGE" ON UNIT 52 AT TIME STEP 16, STRESS PERIOD    8
 UBDSV4 SAVING "           AG WE" ON UNIT  52 AT TIME STEP 16, STRESS PERIOD   8

 HEAD WILL BE SAVED ON UNIT   51 AT END OF TIME STEP   16, STRESS PERIOD    8
 
 SOLVING FOR HEAD 

    ------------------------------------------------
       NWT REQUIRED            1 OUTER ITERATIONS 
       AND A TOTAL OF          2 INNER ITERATIONS.
    ------------------------------------------------

 OUTPUT CONTROL FOR STRESS PERIOD    8   TIME STEP   17
    SAVE HEAD FOR ALL LAYERS
    SAVE BUDGET
 UBDSV1 SAVING "         STORAGE" ON UNIT  52 AT TIME STEP 17, STRESS PERIOD   8
 UBDSV2 SAVING "   CONSTANT HEAD" ON UNIT  52 AT TIME STEP 17, STRESS PERIOD   8
 UBDSV1 SAVING "FLOW RIGHT FACE " ON UNIT  52 AT TIME STEP 17, STRESS PERIOD   8
 UBDSV1 SAVING "FLOW FRONT FACE " ON UNIT  52 AT TIME STEP 17, STRESS PERIOD   8
 UBDSV4 SAVING "  STREAM LEAKAGE" ON UNIT  52 AT TIME STEP 17, STRESS PERIOD   8



 UBUDSV SAVING "           GW ET" ON UNIT 52 AT TIME STEP 17, STRESS PERIOD    8
 UBUDSV SAVING "    UZF RECHARGE" ON UNIT 52 AT TIME STEP 17, STRESS PERIOD    8
 UBUDSV SAVING " SURFACE LEAKAGE" ON UNIT 52 AT TIME STEP 17, STRESS PERIOD    8
 UBUDSV SAVING "       HORT+DUNN" ON UNIT 52 AT TIME STEP 17, STRESS PERIOD    8
 UBUDSV SAVING "  STORAGE CHANGE" ON UNIT 52 AT TIME STEP 17, STRESS PERIOD    8
 UBDSV4 SAVING "           AG WE" ON UNIT  52 AT TIME STEP 17, STRESS PERIOD   8

 HEAD WILL BE SAVED ON UNIT   51 AT END OF TIME STEP   17, STRESS PERIOD    8
 
 SOLVING FOR HEAD 

    ------------------------------------------------
       NWT REQUIRED            1 OUTER ITERATIONS 
       AND A TOTAL OF          2 INNER ITERATIONS.
    ------------------------------------------------

 OUTPUT CONTROL FOR STRESS PERIOD    8   TIME STEP   18
    SAVE HEAD FOR ALL LAYERS
    SAVE BUDGET
 UBDSV1 SAVING "         STORAGE" ON UNIT  52 AT TIME STEP 18, STRESS PERIOD   8
 UBDSV2 SAVING "   CONSTANT HEAD" ON UNIT  52 AT TIME STEP 18, STRESS PERIOD   8
 UBDSV1 SAVING "FLOW RIGHT FACE " ON UNIT  52 AT TIME STEP 18, STRESS PERIOD   8
 UBDSV1 SAVING "FLOW FRONT FACE " ON UNIT  52 AT TIME STEP 18, STRESS PERIOD   8
 UBDSV4 SAVING "  STREAM LEAKAGE" ON UNIT  52 AT TIME STEP 18, STRESS PERIOD   8



 UBUDSV SAVING "           GW ET" ON UNIT 52 AT TIME STEP 18, STRESS PERIOD    8
 UBUDSV SAVING "    UZF RECHARGE" ON UNIT 52 AT TIME STEP 18, STRESS PERIOD    8
 UBUDSV SAVING " SURFACE LEAKAGE" ON UNIT 52 AT TIME STEP 18, STRESS PERIOD    8
 UBUDSV SAVING "       HORT+DUNN" ON UNIT 52 AT TIME STEP 18, STRESS PERIOD    8
 UBUDSV SAVING "  STORAGE CHANGE" ON UNIT 52 AT TIME STEP 18, STRESS PERIOD    8
 UBDSV4 SAVING "           AG WE" ON UNIT  52 AT TIME STEP 18, STRESS PERIOD   8

 HEAD WILL BE SAVED ON UNIT   51 AT END OF TIME STEP   18, STRESS PERIOD    8
 
 SOLVING FOR HEAD 

    ------------------------------------------------
       NWT REQUIRED            1 OUTER ITERATIONS 
       AND A TOTAL OF          2 INNER ITERATIONS.
    ------------------------------------------------

 OUTPUT CONTROL FOR STRESS PERIOD    8   TIME STEP   19
    SAVE HEAD FOR ALL LAYERS
    SAVE BUDGET
 UBDSV1 SAVING "         STORAGE" ON UNIT  52 AT TIME STEP 19, STRESS PERIOD   8
 UBDSV2 SAVING "   CONSTANT HEAD" ON UNIT  52 AT TIME STEP 19, STRESS PERIOD   8
 UBDSV1 SAVING "FLOW RIGHT FACE " ON UNIT  52 AT TIME STEP 19, STRESS PERIOD   8
 UBDSV1 SAVING "FLOW FRONT FACE " ON UNIT  52 AT TIME STEP 19, STRESS PERIOD   8
 UBDSV4 SAVING "  STREAM LEAKAGE" ON UNIT  52 AT TIME STEP 19, STRESS PERIOD   8



 UBUDSV SAVING "           GW ET" ON UNIT 52 AT TIME STEP 19, STRESS PERIOD    8
 UBUDSV SAVING "    UZF RECHARGE" ON UNIT 52 AT TIME STEP 19, STRESS PERIOD    8
 UBUDSV SAVING " SURFACE LEAKAGE" ON UNIT 52 AT TIME STEP 19, STRESS PERIOD    8
 UBUDSV SAVING "       HORT+DUNN" ON UNIT 52 AT TIME STEP 19, STRESS PERIOD    8
 UBUDSV SAVING "  STORAGE CHANGE" ON UNIT 52 AT TIME STEP 19, STRESS PERIOD    8
 UBDSV4 SAVING "           AG WE" ON UNIT  52 AT TIME STEP 19, STRESS PERIOD   8

 HEAD WILL BE SAVED ON UNIT   51 AT END OF TIME STEP   19, STRESS PERIOD    8
 
 SOLVING FOR HEAD 

    ------------------------------------------------
       NWT REQUIRED            1 OUTER ITERATIONS 
       AND A TOTAL OF          2 INNER ITERATIONS.
    ------------------------------------------------

 OUTPUT CONTROL FOR STRESS PERIOD    8   TIME STEP   20
    SAVE HEAD FOR ALL LAYERS
    SAVE BUDGET
 UBDSV1 SAVING "         STORAGE" ON UNIT  52 AT TIME STEP 20, STRESS PERIOD   8
 UBDSV2 SAVING "   CONSTANT HEAD" ON UNIT  52 AT TIME STEP 20, STRESS PERIOD   8
 UBDSV1 SAVING "FLOW RIGHT FACE " ON UNIT  52 AT TIME STEP 20, STRESS PERIOD   8
 UBDSV1 SAVING "FLOW FRONT FACE " ON UNIT  52 AT TIME STEP 20, STRESS PERIOD   8
 UBDSV4 SAVING "  STREAM LEAKAGE" ON UNIT  52 AT TIME STEP 20, STRESS PERIOD   8



 UBUDSV SAVING "           GW ET" ON UNIT 52 AT TIME STEP 20, STRESS PERIOD    8
 UBUDSV SAVING "    UZF RECHARGE" ON UNIT 52 AT TIME STEP 20, STRESS PERIOD    8
 UBUDSV SAVING " SURFACE LEAKAGE" ON UNIT 52 AT TIME STEP 20, STRESS PERIOD    8
 UBUDSV SAVING "       HORT+DUNN" ON UNIT 52 AT TIME STEP 20, STRESS PERIOD    8
 UBUDSV SAVING "  STORAGE CHANGE" ON UNIT 52 AT TIME STEP 20, STRESS PERIOD    8
 UBDSV4 SAVING "           AG WE" ON UNIT  52 AT TIME STEP 20, STRESS PERIOD   8

 HEAD WILL BE SAVED ON UNIT   51 AT END OF TIME STEP   20, STRESS PERIOD    8
 
 SOLVING FOR HEAD 

    ------------------------------------------------
       NWT REQUIRED            1 OUTER ITERATIONS 
       AND A TOTAL OF          2 INNER ITERATIONS.
    ------------------------------------------------

 OUTPUT CONTROL FOR STRESS PERIOD    8   TIME STEP   21
    SAVE HEAD FOR ALL LAYERS
    SAVE BUDGET
 UBDSV1 SAVING "         STORAGE" ON UNIT  52 AT TIME STEP 21, STRESS PERIOD   8
 UBDSV2 SAVING "   CONSTANT HEAD" ON UNIT  52 AT TIME STEP 21, STRESS PERIOD   8
 UBDSV1 SAVING "FLOW RIGHT FACE " ON UNIT  52 AT TIME STEP 21, STRESS PERIOD   8
 UBDSV1 SAVING "FLOW FRONT FACE " ON UNIT  52 AT TIME STEP 21, STRESS PERIOD   8
 UBDSV4 SAVING "  STREAM LEAKAGE" ON UNIT  52 AT TIME STEP 21, STRESS PERIOD   8



 UBUDSV SAVING "           GW ET" ON UNIT 52 AT TIME STEP 21, STRESS PERIOD    8
 UBUDSV SAVING "    UZF RECHARGE" ON UNIT 52 AT TIME STEP 21, STRESS PERIOD    8
 UBUDSV SAVING " SURFACE LEAKAGE" ON UNIT 52 AT TIME STEP 21, STRESS PERIOD    8
 UBUDSV SAVING "       HORT+DUNN" ON UNIT 52 AT TIME STEP 21, STRESS PERIOD    8
 UBUDSV SAVING "  STORAGE CHANGE" ON UNIT 52 AT TIME STEP 21, STRESS PERIOD    8
 UBDSV4 SAVING "           AG WE" ON UNIT  52 AT TIME STEP 21, STRESS PERIOD   8

 HEAD WILL BE SAVED ON UNIT   51 AT END OF TIME STEP   21, STRESS PERIOD    8
 
 SOLVING FOR HEAD 

    ------------------------------------------------
       NWT REQUIRED            1 OUTER ITERATIONS 
       AND A TOTAL OF          2 INNER ITERATIONS.
    ------------------------------------------------

 OUTPUT CONTROL FOR STRESS PERIOD    8   TIME STEP   22
    SAVE HEAD FOR ALL LAYERS
    SAVE BUDGET
 UBDSV1 SAVING "         STORAGE" ON UNIT  52 AT TIME STEP 22, STRESS PERIOD   8
 UBDSV2 SAVING "   CONSTANT HEAD" ON UNIT  52 AT TIME STEP 22, STRESS PERIOD   8
 UBDSV1 SAVING "FLOW RIGHT FACE " ON UNIT  52 AT TIME STEP 22, STRESS PERIOD   8
 UBDSV1 SAVING "FLOW FRONT FACE " ON UNIT  52 AT TIME STEP 22, STRESS PERIOD   8
 UBDSV4 SAVING "  STREAM LEAKAGE" ON UNIT  52 AT TIME STEP 22, STRESS PERIOD   8



 UBUDSV SAVING "           GW ET" ON UNIT 52 AT TIME STEP 22, STRESS PERIOD    8
 UBUDSV SAVING "    UZF RECHARGE" ON UNIT 52 AT TIME STEP 22, STRESS PERIOD    8
 UBUDSV SAVING " SURFACE LEAKAGE" ON UNIT 52 AT TIME STEP 22, STRESS PERIOD    8
 UBUDSV SAVING "       HORT+DUNN" ON UNIT 52 AT TIME STEP 22, STRESS PERIOD    8
 UBUDSV SAVING "  STORAGE CHANGE" ON UNIT 52 AT TIME STEP 22, STRESS PERIOD    8
 UBDSV4 SAVING "           AG WE" ON UNIT  52 AT TIME STEP 22, STRESS PERIOD   8

 HEAD WILL BE SAVED ON UNIT   51 AT END OF TIME STEP   22, STRESS PERIOD    8
 
 SOLVING FOR HEAD 

    ------------------------------------------------
       NWT REQUIRED            1 OUTER ITERATIONS 
       AND A TOTAL OF          2 INNER ITERATIONS.
    ------------------------------------------------

 OUTPUT CONTROL FOR STRESS PERIOD    8   TIME STEP   23
    SAVE HEAD FOR ALL LAYERS
    SAVE BUDGET
 UBDSV1 SAVING "         STORAGE" ON UNIT  52 AT TIME STEP 23, STRESS PERIOD   8
 UBDSV2 SAVING "   CONSTANT HEAD" ON UNIT  52 AT TIME STEP 23, STRESS PERIOD   8
 UBDSV1 SAVING "FLOW RIGHT FACE " ON UNIT  52 AT TIME STEP 23, STRESS PERIOD   8
 UBDSV1 SAVING "FLOW FRONT FACE " ON UNIT  52 AT TIME STEP 23, STRESS PERIOD   8
 UBDSV4 SAVING "  STREAM LEAKAGE" ON UNIT  52 AT TIME STEP 23, STRESS PERIOD   8



 UBUDSV SAVING "           GW ET" ON UNIT 52 AT TIME STEP 23, STRESS PERIOD    8
 UBUDSV SAVING "    UZF RECHARGE" ON UNIT 52 AT TIME STEP 23, STRESS PERIOD    8
 UBUDSV SAVING " SURFACE LEAKAGE" ON UNIT 52 AT TIME STEP 23, STRESS PERIOD    8
 UBUDSV SAVING "       HORT+DUNN" ON UNIT 52 AT TIME STEP 23, STRESS PERIOD    8
 UBUDSV SAVING "  STORAGE CHANGE" ON UNIT 52 AT TIME STEP 23, STRESS PERIOD    8
 UBDSV4 SAVING "           AG WE" ON UNIT  52 AT TIME STEP 23, STRESS PERIOD   8

 HEAD WILL BE SAVED ON UNIT   51 AT END OF TIME STEP   23, STRESS PERIOD    8
 
 SOLVING FOR HEAD 

    ------------------------------------------------
       NWT REQUIRED            1 OUTER ITERATIONS 
       AND A TOTAL OF          2 INNER ITERATIONS.
    ------------------------------------------------

 OUTPUT CONTROL FOR STRESS PERIOD    8   TIME STEP   24
    SAVE HEAD FOR ALL LAYERS
    SAVE BUDGET
 UBDSV1 SAVING "         STORAGE" ON UNIT  52 AT TIME STEP 24, STRESS PERIOD   8
 UBDSV2 SAVING "   CONSTANT HEAD" ON UNIT  52 AT TIME STEP 24, STRESS PERIOD   8
 UBDSV1 SAVING "FLOW RIGHT FACE " ON UNIT  52 AT TIME STEP 24, STRESS PERIOD   8
 UBDSV1 SAVING "FLOW FRONT FACE " ON UNIT  52 AT TIME STEP 24, STRESS PERIOD   8
 UBDSV4 SAVING "  STREAM LEAKAGE" ON UNIT  52 AT TIME STEP 24, STRESS PERIOD   8



 UBUDSV SAVING "           GW ET" ON UNIT 52 AT TIME STEP 24, STRESS PERIOD    8
 UBUDSV SAVING "    UZF RECHARGE" ON UNIT 52 AT TIME STEP 24, STRESS PERIOD    8
 UBUDSV SAVING " SURFACE LEAKAGE" ON UNIT 52 AT TIME STEP 24, STRESS PERIOD    8
 UBUDSV SAVING "       HORT+DUNN" ON UNIT 52 AT TIME STEP 24, STRESS PERIOD    8
 UBUDSV SAVING "  STORAGE CHANGE" ON UNIT 52 AT TIME STEP 24, STRESS PERIOD    8
 UBDSV4 SAVING "           AG WE" ON UNIT  52 AT TIME STEP 24, STRESS PERIOD   8

 HEAD WILL BE SAVED ON UNIT   51 AT END OF TIME STEP   24, STRESS PERIOD    8
 
 SOLVING FOR HEAD 

    ------------------------------------------------
       NWT REQUIRED            1 OUTER ITERATIONS 
       AND A TOTAL OF          1 INNER ITERATIONS.
    ------------------------------------------------

 OUTPUT CONTROL FOR STRESS PERIOD    8   TIME STEP   25
    SAVE HEAD FOR ALL LAYERS
    SAVE BUDGET
 UBDSV1 SAVING "         STORAGE" ON UNIT  52 AT TIME STEP 25, STRESS PERIOD   8
 UBDSV2 SAVING "   CONSTANT HEAD" ON UNIT  52 AT TIME STEP 25, STRESS PERIOD   8
 UBDSV1 SAVING "FLOW RIGHT FACE " ON UNIT  52 AT TIME STEP 25, STRESS PERIOD   8
 UBDSV1 SAVING "FLOW FRONT FACE " ON UNIT  52 AT TIME STEP 25, STRESS PERIOD   8
 UBDSV4 SAVING "  STREAM LEAKAGE" ON UNIT  52 AT TIME STEP 25, STRESS PERIOD   8



 UBUDSV SAVING "           GW ET" ON UNIT 52 AT TIME STEP 25, STRESS PERIOD    8
 UBUDSV SAVING "    UZF RECHARGE" ON UNIT 52 AT TIME STEP 25, STRESS PERIOD    8
 UBUDSV SAVING " SURFACE LEAKAGE" ON UNIT 52 AT TIME STEP 25, STRESS PERIOD    8
 UBUDSV SAVING "       HORT+DUNN" ON UNIT 52 AT TIME STEP 25, STRESS PERIOD    8
 UBUDSV SAVING "  STORAGE CHANGE" ON UNIT 52 AT TIME STEP 25, STRESS PERIOD    8
 UBDSV4 SAVING "           AG WE" ON UNIT  52 AT TIME STEP 25, STRESS PERIOD   8

 HEAD WILL BE SAVED ON UNIT   51 AT END OF TIME STEP   25, STRESS PERIOD    8
 
 SOLVING FOR HEAD 

    ------------------------------------------------
       NWT REQUIRED            1 OUTER ITERATIONS 
       AND A TOTAL OF          1 INNER ITERATIONS.
    ------------------------------------------------

 OUTPUT CONTROL FOR STRESS PERIOD    8   TIME STEP   26
    SAVE HEAD FOR ALL LAYERS
    SAVE BUDGET
 UBDSV1 SAVING "         STORAGE" ON UNIT  52 AT TIME STEP 26, STRESS PERIOD   8
 UBDSV2 SAVING "   CONSTANT HEAD" ON UNIT  52 AT TIME STEP 26, STRESS PERIOD   8
 UBDSV1 SAVING "FLOW RIGHT FACE " ON UNIT  52 AT TIME STEP 26, STRESS PERIOD   8
 UBDSV1 SAVING "FLOW FRONT FACE " ON UNIT  52 AT TIME STEP 26, STRESS PERIOD   8
 UBDSV4 SAVING "  STREAM LEAKAGE" ON UNIT  52 AT TIME STEP 26, STRESS PERIOD   8



 UBUDSV SAVING "           GW ET" ON UNIT 52 AT TIME STEP 26, STRESS PERIOD    8
 UBUDSV SAVING "    UZF RECHARGE" ON UNIT 52 AT TIME STEP 26, STRESS PERIOD    8
 UBUDSV SAVING " SURFACE LEAKAGE" ON UNIT 52 AT TIME STEP 26, STRESS PERIOD    8
 UBUDSV SAVING "       HORT+DUNN" ON UNIT 52 AT TIME STEP 26, STRESS PERIOD    8
 UBUDSV SAVING "  STORAGE CHANGE" ON UNIT 52 AT TIME STEP 26, STRESS PERIOD    8
 UBDSV4 SAVING "           AG WE" ON UNIT  52 AT TIME STEP 26, STRESS PERIOD   8

 HEAD WILL BE SAVED ON UNIT   51 AT END OF TIME STEP   26, STRESS PERIOD    8
 
 SOLVING FOR HEAD 

    ------------------------------------------------
       NWT REQUIRED            1 OUTER ITERATIONS 
       AND A TOTAL OF          1 INNER ITERATIONS.
    ------------------------------------------------

 OUTPUT CONTROL FOR STRESS PERIOD    8   TIME STEP   27
    SAVE HEAD FOR ALL LAYERS
    SAVE BUDGET
 UBDSV1 SAVING "         STORAGE" ON UNIT  52 AT TIME STEP 27, STRESS PERIOD   8
 UBDSV2 SAVING "   CONSTANT HEAD" ON UNIT  52 AT TIME STEP 27, STRESS PERIOD   8
 UBDSV1 SAVING "FLOW RIGHT FACE " ON UNIT  52 AT TIME STEP 27, STRESS PERIOD   8
 UBDSV1 SAVING "FLOW FRONT FACE " ON UNIT  52 AT TIME STEP 27, STRESS PERIOD   8
 UBDSV4 SAVING "  STREAM LEAKAGE" ON UNIT  52 AT TIME STEP 27, STRESS PERIOD   8



 UBUDSV SAVING "           GW ET" ON UNIT 52 AT TIME STEP 27, STRESS PERIOD    8
 UBUDSV SAVING "    UZF RECHARGE" ON UNIT 52 AT TIME STEP 27, STRESS PERIOD    8
 UBUDSV SAVING " SURFACE LEAKAGE" ON UNIT 52 AT TIME STEP 27, STRESS PERIOD    8
 UBUDSV SAVING "       HORT+DUNN" ON UNIT 52 AT TIME STEP 27, STRESS PERIOD    8
 UBUDSV SAVING "  STORAGE CHANGE" ON UNIT 52 AT TIME STEP 27, STRESS PERIOD    8
 UBDSV4 SAVING "           AG WE" ON UNIT  52 AT TIME STEP 27, STRESS PERIOD   8

 HEAD WILL BE SAVED ON UNIT   51 AT END OF TIME STEP   27, STRESS PERIOD    8
 
 SOLVING FOR HEAD 

    ------------------------------------------------
       NWT REQUIRED            1 OUTER ITERATIONS 
       AND A TOTAL OF          1 INNER ITERATIONS.
    ------------------------------------------------

 OUTPUT CONTROL FOR STRESS PERIOD    8   TIME STEP   28
    SAVE HEAD FOR ALL LAYERS
    SAVE BUDGET
 UBDSV1 SAVING "         STORAGE" ON UNIT  52 AT TIME STEP 28, STRESS PERIOD   8
 UBDSV2 SAVING "   CONSTANT HEAD" ON UNIT  52 AT TIME STEP 28, STRESS PERIOD   8
 UBDSV1 SAVING "FLOW RIGHT FACE " ON UNIT  52 AT TIME STEP 28, STRESS PERIOD   8
 UBDSV1 SAVING "FLOW FRONT FACE " ON UNIT  52 AT TIME STEP 28, STRESS PERIOD   8
 UBDSV4 SAVING "  STREAM LEAKAGE" ON UNIT  52 AT TIME STEP 28, STRESS PERIOD   8



 UBUDSV SAVING "           GW ET" ON UNIT 52 AT TIME STEP 28, STRESS PERIOD    8
 UBUDSV SAVING "    UZF RECHARGE" ON UNIT 52 AT TIME STEP 28, STRESS PERIOD    8
 UBUDSV SAVING " SURFACE LEAKAGE" ON UNIT 52 AT TIME STEP 28, STRESS PERIOD    8
 UBUDSV SAVING "       HORT+DUNN" ON UNIT 52 AT TIME STEP 28, STRESS PERIOD    8
 UBUDSV SAVING "  STORAGE CHANGE" ON UNIT 52 AT TIME STEP 28, STRESS PERIOD    8
 UBDSV4 SAVING "           AG WE" ON UNIT  52 AT TIME STEP 28, STRESS PERIOD   8

 HEAD WILL BE SAVED ON UNIT   51 AT END OF TIME STEP   28, STRESS PERIOD    8
 
 SOLVING FOR HEAD 

    ------------------------------------------------
       NWT REQUIRED            1 OUTER ITERATIONS 
       AND A TOTAL OF          1 INNER ITERATIONS.
    ------------------------------------------------

 OUTPUT CONTROL FOR STRESS PERIOD    8   TIME STEP   29
    SAVE HEAD FOR ALL LAYERS
    SAVE BUDGET
 UBDSV1 SAVING "         STORAGE" ON UNIT  52 AT TIME STEP 29, STRESS PERIOD   8
 UBDSV2 SAVING "   CONSTANT HEAD" ON UNIT  52 AT TIME STEP 29, STRESS PERIOD   8
 UBDSV1 SAVING "FLOW RIGHT FACE " ON UNIT  52 AT TIME STEP 29, STRESS PERIOD   8
 UBDSV1 SAVING "FLOW FRONT FACE " ON UNIT  52 AT TIME STEP 29, STRESS PERIOD   8
 UBDSV4 SAVING "  STREAM LEAKAGE" ON UNIT  52 AT TIME STEP 29, STRESS PERIOD   8



 UBUDSV SAVING "           GW ET" ON UNIT 52 AT TIME STEP 29, STRESS PERIOD    8
 UBUDSV SAVING "    UZF RECHARGE" ON UNIT 52 AT TIME STEP 29, STRESS PERIOD    8
 UBUDSV SAVING " SURFACE LEAKAGE" ON UNIT 52 AT TIME STEP 29, STRESS PERIOD    8
 UBUDSV SAVING "       HORT+DUNN" ON UNIT 52 AT TIME STEP 29, STRESS PERIOD    8
 UBUDSV SAVING "  STORAGE CHANGE" ON UNIT 52 AT TIME STEP 29, STRESS PERIOD    8
 UBDSV4 SAVING "           AG WE" ON UNIT  52 AT TIME STEP 29, STRESS PERIOD   8

 HEAD WILL BE SAVED ON UNIT   51 AT END OF TIME STEP   29, STRESS PERIOD    8
 
 SOLVING FOR HEAD 

    ------------------------------------------------
       NWT REQUIRED            1 OUTER ITERATIONS 
       AND A TOTAL OF          1 INNER ITERATIONS.
    ------------------------------------------------

 OUTPUT CONTROL FOR STRESS PERIOD    8   TIME STEP   30
    SAVE HEAD FOR ALL LAYERS
    SAVE BUDGET
 UBDSV1 SAVING "         STORAGE" ON UNIT  52 AT TIME STEP 30, STRESS PERIOD   8
 UBDSV2 SAVING "   CONSTANT HEAD" ON UNIT  52 AT TIME STEP 30, STRESS PERIOD   8
 UBDSV1 SAVING "FLOW RIGHT FACE " ON UNIT  52 AT TIME STEP 30, STRESS PERIOD   8
 UBDSV1 SAVING "FLOW FRONT FACE " ON UNIT  52 AT TIME STEP 30, STRESS PERIOD   8
 UBDSV4 SAVING "  STREAM LEAKAGE" ON UNIT  52 AT TIME STEP 30, STRESS PERIOD   8



 UBUDSV SAVING "           GW ET" ON UNIT 52 AT TIME STEP 30, STRESS PERIOD    8
 UBUDSV SAVING "    UZF RECHARGE" ON UNIT 52 AT TIME STEP 30, STRESS PERIOD    8
 UBUDSV SAVING " SURFACE LEAKAGE" ON UNIT 52 AT TIME STEP 30, STRESS PERIOD    8
 UBUDSV SAVING "       HORT+DUNN" ON UNIT 52 AT TIME STEP 30, STRESS PERIOD    8
 UBUDSV SAVING "  STORAGE CHANGE" ON UNIT 52 AT TIME STEP 30, STRESS PERIOD    8
 UBDSV4 SAVING "           AG WE" ON UNIT  52 AT TIME STEP 30, STRESS PERIOD   8

 HEAD WILL BE SAVED ON UNIT   51 AT END OF TIME STEP   30, STRESS PERIOD    8
 
 SOLVING FOR HEAD 

    ------------------------------------------------
       NWT REQUIRED            1 OUTER ITERATIONS 
       AND A TOTAL OF          1 INNER ITERATIONS.
    ------------------------------------------------

 OUTPUT CONTROL FOR STRESS PERIOD    8   TIME STEP   31
    SAVE HEAD FOR ALL LAYERS
    SAVE BUDGET
 UBDSV1 SAVING "         STORAGE" ON UNIT  52 AT TIME STEP 31, STRESS PERIOD   8
 UBDSV2 SAVING "   CONSTANT HEAD" ON UNIT  52 AT TIME STEP 31, STRESS PERIOD   8
 UBDSV1 SAVING "FLOW RIGHT FACE " ON UNIT  52 AT TIME STEP 31, STRESS PERIOD   8
 UBDSV1 SAVING "FLOW FRONT FACE " ON UNIT  52 AT TIME STEP 31, STRESS PERIOD   8
 UBDSV4 SAVING "  STREAM LEAKAGE" ON UNIT  52 AT TIME STEP 31, STRESS PERIOD   8



 UBUDSV SAVING "           GW ET" ON UNIT 52 AT TIME STEP 31, STRESS PERIOD    8
 UBUDSV SAVING "    UZF RECHARGE" ON UNIT 52 AT TIME STEP 31, STRESS PERIOD    8
 UBUDSV SAVING " SURFACE LEAKAGE" ON UNIT 52 AT TIME STEP 31, STRESS PERIOD    8
 UBUDSV SAVING "       HORT+DUNN" ON UNIT 52 AT TIME STEP 31, STRESS PERIOD    8
 UBUDSV SAVING "  STORAGE CHANGE" ON UNIT 52 AT TIME STEP 31, STRESS PERIOD    8


UNSATURATED ZONE PACKAGE VOLUMETRIC BUDGET FOR  TIME STEP    31 STRESS PERIOD    8
  ------------------------------------------------------------------------------



     CUMULATIVE VOLUMES      L**3       RATES FOR THIS TIME STEP      L**3/T
     ------------------                 ------------------------

           IN:                                      IN:
           ---                                      ---
        INFILTRATION =      125699.9989          INFILTRATION =          74.8658

          OUT:                                     OUT:
          ----                                     ----
              UZF ET =      151485.7048                UZF ET =          80.4483
        UZF RECHARGE =        9574.8203          UZF RECHARGE =           8.8362

            IN - OUT =      -35360.5263              IN - OUT =         -14.4186

          STORAGE:                                 STORAGE:
          --------                                 --------
      STORAGE CHANGE =      -35360.7893        STORAGE CHANGE =         -14.4186

 PERCENT DISCREPANCY IS DIFFERENCE BETWEEN IN-OUT MINUS CHANGE IN STORAGE
 DIVIDED BY THE AVERAGE OF IN AND OUT TIMES 100

 PERCENT DISCREPANCY =           0.00     PERCENT DISCREPANCY =           0.00






 UBDSV4 SAVING "           AG WE" ON UNIT  52 AT TIME STEP 31, STRESS PERIOD   8
1
  VOLUMETRIC BUDGET FOR AGRICULTURAL FIELDS AT TIME STEP   31, STRESS PERIOD   8
  ------------------------------------------------------------------------------

     CUMULATIVE VOLUMES      L**3       RATES FOR THIS TIME STEP      L**3/T
     ------------------                 ------------------------

           IN:                                      IN:
           ---                                      ---
               AG WELLS  =        2853.6836                 AG WELLS  =          15.9925
      DIVERSION SEGMENTS =        3874.8608        DIVERSION SEGMENTS =          30.0000
           GW IRRIGATION =           0.0000             GW IRRIGATION =           0.0000
           SW IRRIGATION =           0.0000             SW IRRIGATION =           0.0000
        SYSTEM LOSSES GW =           0.0000          SYSTEM LOSSES GW =           0.0000
        SYSTEM LOSSES SW =           0.0000          SYSTEM LOSSES SW =           0.0000

                TOTAL IN =        6728.5444                  TOTAL IN =          45.9925

          OUT:                                     OUT:
          ----                                     ----
               AG WELLS  =           0.0000                 AG WELLS  =           0.0000
      DIVERSION SEGMENTS =           0.0000        DIVERSION SEGMENTS =           0.0000
           GW IRRIGATION =        2853.6836             GW IRRIGATION =          15.9925
           SW IRRIGATION =        3874.8608             SW IRRIGATION =          30.0000
        SYSTEM LOSSES GW =           0.0000          SYSTEM LOSSES GW =           0.0000
        SYSTEM LOSSES SW =           0.0000          SYSTEM LOSSES SW =           0.0000

               TOTAL OUT =        6728.5444                 TOTAL OUT =          45.9925

                IN - OUT =           0.0000                  IN - OUT =           0.0000

     PERCENT DISCREPANCY =           0.00         PERCENT DISCREPANCY =           0.00




 HEAD WILL BE SAVED ON UNIT   51 AT END OF TIME STEP   31, STRESS PERIOD    8
1
  VOLUMETRIC BUDGET FOR ENTIRE MODEL AT END OF TIME STEP   31, STRESS PERIOD   8
  ------------------------------------------------------------------------------

     CUMULATIVE VOLUMES      L**3       RATES FOR THIS TIME STEP      L**3/T
     ------------------                 ------------------------

           IN:                                      IN:
           ---                                      ---
             STORAGE     =         814.9960               STORAGE     =           7.1071
       CONSTANT HEAD     =           0.0000         CONSTANT HEAD     =           0.0000
      STREAM LEAKAGE     =          18.4736        STREAM LEAKAGE     =       7.6023E-02
        UZF RECHARGE     =        9574.8213          UZF RECHARGE     =           8.8362
               GW ET     =           0.0000                 GW ET     =           0.0000
     SURFACE LEAKAGE     =           0.0000       SURFACE LEAKAGE     =           0.0000
           AG WELLS      =           0.0000             AG WELLS      =           0.0000

                TOTAL IN =       10408.2910                  TOTAL IN =          16.0193

          OUT:                                     OUT:
          ----                                     ----
             STORAGE     =        6775.1982               STORAGE     =           0.4392
       CONSTANT HEAD     =           0.0000         CONSTANT HEAD     =           0.0000
      STREAM LEAKAGE     =           0.0000        STREAM LEAKAGE     =           0.0000
        UZF RECHARGE     =           0.0000          UZF RECHARGE     =           0.0000
               GW ET     =           0.0000                 GW ET     =           0.0000
     SURFACE LEAKAGE     =           0.0000       SURFACE LEAKAGE     =           0.0000
           AG WELLS      =        2853.6836             AG WELLS      =          15.9925

               TOTAL OUT =        9628.8818                 TOTAL OUT =          16.4317

                IN - OUT =         779.4092                  IN - OUT =          -0.4124

     PERCENT DISCREPANCY =           7.78         PERCENT DISCREPANCY =          -2.54






         TIME SUMMARY AT END OF TIME STEP   31 IN STRESS PERIOD    8
                    SECONDS     MINUTES      HOURS       DAYS        YEARS
                    -----------------------------------------------------------
   TIME STEP LENGTH  86400.      1440.0      24.000      1.0000     2.73785E-03
 STRESS PERIOD TIME 2.67840E+06  44640.      744.00      31.000     8.48734E-02
         TOTAL TIME 2.09952E+07 3.49920E+05  5832.0      243.00     0.66530    
1
1
                            STRESS PERIOD NO.    9, LENGTH =   30.00000    
                            -----------------------------------------------

                              NUMBER OF TIME STEPS =    30

                               MULTIPLIER FOR DELT =     1.000

                            INITIAL TIME STEP SIZE =   1.000000    



 CLASSIFICATION & COUNT OF STREAM SEGMENTS BASED ON SOURCE OF INFLOW:

                HEADWATER     DIVERSION     RECEIVES TRIBUTARY FLOW
                ---------     ---------     -----------------------
                     1              2               9



                    INPUT DATA FOR EACH STREAM SEGMENT
 ---------------------------------------------------------------------------------------------

 SEGMENT    SEG.     INFLOW   OVERLAND   STREAM    STREAM   ICALC  OUTFLOW  DIVERSION PRIORITY
    NO.    LENGTH     RATE     RUNOFF      ET       PPT.    METH.  TO SEG.  FROM SEG.    NO.

      1  1.000E+02 5.000E+01 0.000E+00 0.000E+00 0.000E+00    1        2        0        0
      2  1.000E+02 0.000E+00 0.000E+00 0.000E+00 0.000E+00    1        3        0        0
      3  1.000E+02 0.000E+00 0.000E+00 0.000E+00 0.000E+00    1        4        0        0
      4  1.000E+02 0.000E+00 0.000E+00 0.000E+00 0.000E+00    1        5        0        0
      5  1.000E+02 0.000E+00 0.000E+00 0.000E+00 0.000E+00    1        6        0        0
      6  1.000E+02 0.000E+00 0.000E+00 0.000E+00 0.000E+00    1        7        0        0
      7  1.000E+02 0.000E+00 0.000E+00 0.000E+00 0.000E+00    1        8        0        0
      8  1.000E+02 0.000E+00 0.000E+00 0.000E+00 0.000E+00    1        9        0        0
      9  1.000E+02 0.000E+00 0.000E+00 0.000E+00 0.000E+00    1       10        0        0
     10  1.000E+02 0.000E+00 0.000E+00 0.000E+00 0.000E+00    1        0        0        0
     11  1.000E+02 2.000E+01 0.000E+00 0.000E+00 0.000E+00    1        0        3        0
     12  1.000E+02 1.000E+01 0.000E+00 0.000E+00 0.000E+00    1        0        5        0


         STREAMBED PROPERTIES AND STREAM DIMENSIONS

 SEGMENT     BED HYD. COND.      BED THICKNESS     ELEV.-TOP OF BED     WIDTH OF STREAM     DEPTH OF STREAM    STREAM ROUGHNESS
    No.     UPPER     LOWER     UPPER     LOWER     UPPER     LOWER     UPPER     LOWER     UPPER     LOWER   CHANNEL      BANK

     1  1.500E-05 1.500E-05 5.000E-01 5.000E-01 9.900E+01 9.898E+01 5.000E+00 5.000E+00                     3.000E-02
     2  1.500E-05 1.500E-05 5.000E-01 5.000E-01 9.898E+01 9.896E+01 5.000E+00 5.000E+00                     3.000E-02
     3  1.500E-05 1.500E-05 5.000E-01 5.000E-01 9.896E+01 9.894E+01 5.000E+00 5.000E+00                     3.000E-02
     4  1.500E-05 1.500E-05 5.000E-01 5.000E-01 9.894E+01 9.892E+01 5.000E+00 5.000E+00                     3.000E-02
     5  1.500E-05 1.500E-05 5.000E-01 5.000E-01 9.892E+01 9.890E+01 5.000E+00 5.000E+00                     3.000E-02
     6  1.500E-05 1.500E-05 5.000E-01 5.000E-01 9.890E+01 9.888E+01 5.000E+00 5.000E+00                     3.000E-02
     7  1.500E-05 1.500E-05 5.000E-01 5.000E-01 9.888E+01 9.886E+01 5.000E+00 5.000E+00                     3.000E-02
     8  1.500E-05 1.500E-05 5.000E-01 5.000E-01 9.886E+01 9.884E+01 5.000E+00 5.000E+00                     3.000E-02
     9  1.500E-05 1.500E-05 5.000E-01 5.000E-01 9.884E+01 9.882E+01 5.000E+00 5.000E+00                     3.000E-02
    10  1.500E-05 1.500E-05 5.000E-01 5.000E-01 9.882E+01 9.880E+01 5.000E+00 5.000E+00                     3.000E-02
    11  1.500E-05 1.500E-05 5.000E-01 5.000E-01 9.894E+01 9.892E+01 5.000E+00 5.000E+00                     3.000E-02
    12  1.500E-05 1.500E-05 5.000E-01 5.000E-01 9.890E+01 9.888E+01 5.000E+00 5.000E+00                     3.000E-02






            AREAL INFILTRATION RATE
 READING ON UNIT   19 WITH FORMAT: (10E15.6)           



                            ET RATE
 READING ON UNIT   19 WITH FORMAT: (10E15.6)           



                ET EXTINCTION DEPTH
 READING ON UNIT   19 WITH FORMAT: (10E15.6)           



           EXTINCTION WATER CONTENT
 READING ON UNIT   19 WITH FORMAT: (10E15.6)           

 PROCESSING AG STRESS PERIOD DATA

 READING AG STRESS PERIOD DATA

 READING IRRIGATION SEGMENT

 READING IRRIGATION WELL

 READING SUPPLEMENTAL WELL

 END PROCESSING AG STRESS PERIOD DATA OPTIONS
 
 SOLVING FOR HEAD 

    ------------------------------------------------
       NWT REQUIRED            1 OUTER ITERATIONS 
       AND A TOTAL OF          2 INNER ITERATIONS.
    ------------------------------------------------

 OUTPUT CONTROL FOR STRESS PERIOD    9   TIME STEP    1
    SAVE HEAD FOR ALL LAYERS
    SAVE BUDGET
 UBDSV1 SAVING "         STORAGE" ON UNIT  52 AT TIME STEP  1, STRESS PERIOD   9
 UBDSV2 SAVING "   CONSTANT HEAD" ON UNIT  52 AT TIME STEP  1, STRESS PERIOD   9
 UBDSV1 SAVING "FLOW RIGHT FACE " ON UNIT  52 AT TIME STEP  1, STRESS PERIOD   9
 UBDSV1 SAVING "FLOW FRONT FACE " ON UNIT  52 AT TIME STEP  1, STRESS PERIOD   9
 UBDSV4 SAVING "  STREAM LEAKAGE" ON UNIT  52 AT TIME STEP  1, STRESS PERIOD   9



 UBUDSV SAVING "           GW ET" ON UNIT 52 AT TIME STEP  1, STRESS PERIOD    9
 UBUDSV SAVING "    UZF RECHARGE" ON UNIT 52 AT TIME STEP  1, STRESS PERIOD    9
 UBUDSV SAVING " SURFACE LEAKAGE" ON UNIT 52 AT TIME STEP  1, STRESS PERIOD    9
 UBUDSV SAVING "       HORT+DUNN" ON UNIT 52 AT TIME STEP  1, STRESS PERIOD    9
 UBUDSV SAVING "  STORAGE CHANGE" ON UNIT 52 AT TIME STEP  1, STRESS PERIOD    9
 UBDSV4 SAVING "           AG WE" ON UNIT  52 AT TIME STEP  1, STRESS PERIOD   9

 HEAD WILL BE SAVED ON UNIT   51 AT END OF TIME STEP    1, STRESS PERIOD    9
 
 SOLVING FOR HEAD 

    ------------------------------------------------
       NWT REQUIRED            1 OUTER ITERATIONS 
       AND A TOTAL OF          2 INNER ITERATIONS.
    ------------------------------------------------

 OUTPUT CONTROL FOR STRESS PERIOD    9   TIME STEP    2
    SAVE HEAD FOR ALL LAYERS
    SAVE BUDGET
 UBDSV1 SAVING "         STORAGE" ON UNIT  52 AT TIME STEP  2, STRESS PERIOD   9
 UBDSV2 SAVING "   CONSTANT HEAD" ON UNIT  52 AT TIME STEP  2, STRESS PERIOD   9
 UBDSV1 SAVING "FLOW RIGHT FACE " ON UNIT  52 AT TIME STEP  2, STRESS PERIOD   9
 UBDSV1 SAVING "FLOW FRONT FACE " ON UNIT  52 AT TIME STEP  2, STRESS PERIOD   9
 UBDSV4 SAVING "  STREAM LEAKAGE" ON UNIT  52 AT TIME STEP  2, STRESS PERIOD   9



 UBUDSV SAVING "           GW ET" ON UNIT 52 AT TIME STEP  2, STRESS PERIOD    9
 UBUDSV SAVING "    UZF RECHARGE" ON UNIT 52 AT TIME STEP  2, STRESS PERIOD    9
 UBUDSV SAVING " SURFACE LEAKAGE" ON UNIT 52 AT TIME STEP  2, STRESS PERIOD    9
 UBUDSV SAVING "       HORT+DUNN" ON UNIT 52 AT TIME STEP  2, STRESS PERIOD    9
 UBUDSV SAVING "  STORAGE CHANGE" ON UNIT 52 AT TIME STEP  2, STRESS PERIOD    9
 UBDSV4 SAVING "           AG WE" ON UNIT  52 AT TIME STEP  2, STRESS PERIOD   9

 HEAD WILL BE SAVED ON UNIT   51 AT END OF TIME STEP    2, STRESS PERIOD    9
 
 SOLVING FOR HEAD 

    ------------------------------------------------
       NWT REQUIRED            1 OUTER ITERATIONS 
       AND A TOTAL OF          2 INNER ITERATIONS.
    ------------------------------------------------

 OUTPUT CONTROL FOR STRESS PERIOD    9   TIME STEP    3
    SAVE HEAD FOR ALL LAYERS
    SAVE BUDGET
 UBDSV1 SAVING "         STORAGE" ON UNIT  52 AT TIME STEP  3, STRESS PERIOD   9
 UBDSV2 SAVING "   CONSTANT HEAD" ON UNIT  52 AT TIME STEP  3, STRESS PERIOD   9
 UBDSV1 SAVING "FLOW RIGHT FACE " ON UNIT  52 AT TIME STEP  3, STRESS PERIOD   9
 UBDSV1 SAVING "FLOW FRONT FACE " ON UNIT  52 AT TIME STEP  3, STRESS PERIOD   9
 UBDSV4 SAVING "  STREAM LEAKAGE" ON UNIT  52 AT TIME STEP  3, STRESS PERIOD   9



 UBUDSV SAVING "           GW ET" ON UNIT 52 AT TIME STEP  3, STRESS PERIOD    9
 UBUDSV SAVING "    UZF RECHARGE" ON UNIT 52 AT TIME STEP  3, STRESS PERIOD    9
 UBUDSV SAVING " SURFACE LEAKAGE" ON UNIT 52 AT TIME STEP  3, STRESS PERIOD    9
 UBUDSV SAVING "       HORT+DUNN" ON UNIT 52 AT TIME STEP  3, STRESS PERIOD    9
 UBUDSV SAVING "  STORAGE CHANGE" ON UNIT 52 AT TIME STEP  3, STRESS PERIOD    9
 UBDSV4 SAVING "           AG WE" ON UNIT  52 AT TIME STEP  3, STRESS PERIOD   9

 HEAD WILL BE SAVED ON UNIT   51 AT END OF TIME STEP    3, STRESS PERIOD    9
 
 SOLVING FOR HEAD 

    ------------------------------------------------
       NWT REQUIRED            1 OUTER ITERATIONS 
       AND A TOTAL OF          2 INNER ITERATIONS.
    ------------------------------------------------

 OUTPUT CONTROL FOR STRESS PERIOD    9   TIME STEP    4
    SAVE HEAD FOR ALL LAYERS
    SAVE BUDGET
 UBDSV1 SAVING "         STORAGE" ON UNIT  52 AT TIME STEP  4, STRESS PERIOD   9
 UBDSV2 SAVING "   CONSTANT HEAD" ON UNIT  52 AT TIME STEP  4, STRESS PERIOD   9
 UBDSV1 SAVING "FLOW RIGHT FACE " ON UNIT  52 AT TIME STEP  4, STRESS PERIOD   9
 UBDSV1 SAVING "FLOW FRONT FACE " ON UNIT  52 AT TIME STEP  4, STRESS PERIOD   9
 UBDSV4 SAVING "  STREAM LEAKAGE" ON UNIT  52 AT TIME STEP  4, STRESS PERIOD   9



 UBUDSV SAVING "           GW ET" ON UNIT 52 AT TIME STEP  4, STRESS PERIOD    9
 UBUDSV SAVING "    UZF RECHARGE" ON UNIT 52 AT TIME STEP  4, STRESS PERIOD    9
 UBUDSV SAVING " SURFACE LEAKAGE" ON UNIT 52 AT TIME STEP  4, STRESS PERIOD    9
 UBUDSV SAVING "       HORT+DUNN" ON UNIT 52 AT TIME STEP  4, STRESS PERIOD    9
 UBUDSV SAVING "  STORAGE CHANGE" ON UNIT 52 AT TIME STEP  4, STRESS PERIOD    9
 UBDSV4 SAVING "           AG WE" ON UNIT  52 AT TIME STEP  4, STRESS PERIOD   9

 HEAD WILL BE SAVED ON UNIT   51 AT END OF TIME STEP    4, STRESS PERIOD    9
 
 SOLVING FOR HEAD 

    ------------------------------------------------
       NWT REQUIRED            1 OUTER ITERATIONS 
       AND A TOTAL OF          2 INNER ITERATIONS.
    ------------------------------------------------

 OUTPUT CONTROL FOR STRESS PERIOD    9   TIME STEP    5
    SAVE HEAD FOR ALL LAYERS
    SAVE BUDGET
 UBDSV1 SAVING "         STORAGE" ON UNIT  52 AT TIME STEP  5, STRESS PERIOD   9
 UBDSV2 SAVING "   CONSTANT HEAD" ON UNIT  52 AT TIME STEP  5, STRESS PERIOD   9
 UBDSV1 SAVING "FLOW RIGHT FACE " ON UNIT  52 AT TIME STEP  5, STRESS PERIOD   9
 UBDSV1 SAVING "FLOW FRONT FACE " ON UNIT  52 AT TIME STEP  5, STRESS PERIOD   9
 UBDSV4 SAVING "  STREAM LEAKAGE" ON UNIT  52 AT TIME STEP  5, STRESS PERIOD   9



 UBUDSV SAVING "           GW ET" ON UNIT 52 AT TIME STEP  5, STRESS PERIOD    9
 UBUDSV SAVING "    UZF RECHARGE" ON UNIT 52 AT TIME STEP  5, STRESS PERIOD    9
 UBUDSV SAVING " SURFACE LEAKAGE" ON UNIT 52 AT TIME STEP  5, STRESS PERIOD    9
 UBUDSV SAVING "       HORT+DUNN" ON UNIT 52 AT TIME STEP  5, STRESS PERIOD    9
 UBUDSV SAVING "  STORAGE CHANGE" ON UNIT 52 AT TIME STEP  5, STRESS PERIOD    9
 UBDSV4 SAVING "           AG WE" ON UNIT  52 AT TIME STEP  5, STRESS PERIOD   9

 HEAD WILL BE SAVED ON UNIT   51 AT END OF TIME STEP    5, STRESS PERIOD    9
 
 SOLVING FOR HEAD 

    ------------------------------------------------
       NWT REQUIRED            1 OUTER ITERATIONS 
       AND A TOTAL OF          2 INNER ITERATIONS.
    ------------------------------------------------

 OUTPUT CONTROL FOR STRESS PERIOD    9   TIME STEP    6
    SAVE HEAD FOR ALL LAYERS
    SAVE BUDGET
 UBDSV1 SAVING "         STORAGE" ON UNIT  52 AT TIME STEP  6, STRESS PERIOD   9
 UBDSV2 SAVING "   CONSTANT HEAD" ON UNIT  52 AT TIME STEP  6, STRESS PERIOD   9
 UBDSV1 SAVING "FLOW RIGHT FACE " ON UNIT  52 AT TIME STEP  6, STRESS PERIOD   9
 UBDSV1 SAVING "FLOW FRONT FACE " ON UNIT  52 AT TIME STEP  6, STRESS PERIOD   9
 UBDSV4 SAVING "  STREAM LEAKAGE" ON UNIT  52 AT TIME STEP  6, STRESS PERIOD   9



 UBUDSV SAVING "           GW ET" ON UNIT 52 AT TIME STEP  6, STRESS PERIOD    9
 UBUDSV SAVING "    UZF RECHARGE" ON UNIT 52 AT TIME STEP  6, STRESS PERIOD    9
 UBUDSV SAVING " SURFACE LEAKAGE" ON UNIT 52 AT TIME STEP  6, STRESS PERIOD    9
 UBUDSV SAVING "       HORT+DUNN" ON UNIT 52 AT TIME STEP  6, STRESS PERIOD    9
 UBUDSV SAVING "  STORAGE CHANGE" ON UNIT 52 AT TIME STEP  6, STRESS PERIOD    9
 UBDSV4 SAVING "           AG WE" ON UNIT  52 AT TIME STEP  6, STRESS PERIOD   9

 HEAD WILL BE SAVED ON UNIT   51 AT END OF TIME STEP    6, STRESS PERIOD    9
 
 SOLVING FOR HEAD 

    ------------------------------------------------
       NWT REQUIRED            1 OUTER ITERATIONS 
       AND A TOTAL OF          2 INNER ITERATIONS.
    ------------------------------------------------

 OUTPUT CONTROL FOR STRESS PERIOD    9   TIME STEP    7
    SAVE HEAD FOR ALL LAYERS
    SAVE BUDGET
 UBDSV1 SAVING "         STORAGE" ON UNIT  52 AT TIME STEP  7, STRESS PERIOD   9
 UBDSV2 SAVING "   CONSTANT HEAD" ON UNIT  52 AT TIME STEP  7, STRESS PERIOD   9
 UBDSV1 SAVING "FLOW RIGHT FACE " ON UNIT  52 AT TIME STEP  7, STRESS PERIOD   9
 UBDSV1 SAVING "FLOW FRONT FACE " ON UNIT  52 AT TIME STEP  7, STRESS PERIOD   9
 UBDSV4 SAVING "  STREAM LEAKAGE" ON UNIT  52 AT TIME STEP  7, STRESS PERIOD   9



 UBUDSV SAVING "           GW ET" ON UNIT 52 AT TIME STEP  7, STRESS PERIOD    9
 UBUDSV SAVING "    UZF RECHARGE" ON UNIT 52 AT TIME STEP  7, STRESS PERIOD    9
 UBUDSV SAVING " SURFACE LEAKAGE" ON UNIT 52 AT TIME STEP  7, STRESS PERIOD    9
 UBUDSV SAVING "       HORT+DUNN" ON UNIT 52 AT TIME STEP  7, STRESS PERIOD    9
 UBUDSV SAVING "  STORAGE CHANGE" ON UNIT 52 AT TIME STEP  7, STRESS PERIOD    9
 UBDSV4 SAVING "           AG WE" ON UNIT  52 AT TIME STEP  7, STRESS PERIOD   9

 HEAD WILL BE SAVED ON UNIT   51 AT END OF TIME STEP    7, STRESS PERIOD    9
 
 SOLVING FOR HEAD 

    ------------------------------------------------
       NWT REQUIRED            1 OUTER ITERATIONS 
       AND A TOTAL OF          2 INNER ITERATIONS.
    ------------------------------------------------

 OUTPUT CONTROL FOR STRESS PERIOD    9   TIME STEP    8
    SAVE HEAD FOR ALL LAYERS
    SAVE BUDGET
 UBDSV1 SAVING "         STORAGE" ON UNIT  52 AT TIME STEP  8, STRESS PERIOD   9
 UBDSV2 SAVING "   CONSTANT HEAD" ON UNIT  52 AT TIME STEP  8, STRESS PERIOD   9
 UBDSV1 SAVING "FLOW RIGHT FACE " ON UNIT  52 AT TIME STEP  8, STRESS PERIOD   9
 UBDSV1 SAVING "FLOW FRONT FACE " ON UNIT  52 AT TIME STEP  8, STRESS PERIOD   9
 UBDSV4 SAVING "  STREAM LEAKAGE" ON UNIT  52 AT TIME STEP  8, STRESS PERIOD   9



 UBUDSV SAVING "           GW ET" ON UNIT 52 AT TIME STEP  8, STRESS PERIOD    9
 UBUDSV SAVING "    UZF RECHARGE" ON UNIT 52 AT TIME STEP  8, STRESS PERIOD    9
 UBUDSV SAVING " SURFACE LEAKAGE" ON UNIT 52 AT TIME STEP  8, STRESS PERIOD    9
 UBUDSV SAVING "       HORT+DUNN" ON UNIT 52 AT TIME STEP  8, STRESS PERIOD    9
 UBUDSV SAVING "  STORAGE CHANGE" ON UNIT 52 AT TIME STEP  8, STRESS PERIOD    9
 UBDSV4 SAVING "           AG WE" ON UNIT  52 AT TIME STEP  8, STRESS PERIOD   9

 HEAD WILL BE SAVED ON UNIT   51 AT END OF TIME STEP    8, STRESS PERIOD    9
 
 SOLVING FOR HEAD 

    ------------------------------------------------
       NWT REQUIRED            1 OUTER ITERATIONS 
       AND A TOTAL OF          2 INNER ITERATIONS.
    ------------------------------------------------

 OUTPUT CONTROL FOR STRESS PERIOD    9   TIME STEP    9
    SAVE HEAD FOR ALL LAYERS
    SAVE BUDGET
 UBDSV1 SAVING "         STORAGE" ON UNIT  52 AT TIME STEP  9, STRESS PERIOD   9
 UBDSV2 SAVING "   CONSTANT HEAD" ON UNIT  52 AT TIME STEP  9, STRESS PERIOD   9
 UBDSV1 SAVING "FLOW RIGHT FACE " ON UNIT  52 AT TIME STEP  9, STRESS PERIOD   9
 UBDSV1 SAVING "FLOW FRONT FACE " ON UNIT  52 AT TIME STEP  9, STRESS PERIOD   9
 UBDSV4 SAVING "  STREAM LEAKAGE" ON UNIT  52 AT TIME STEP  9, STRESS PERIOD   9



 UBUDSV SAVING "           GW ET" ON UNIT 52 AT TIME STEP  9, STRESS PERIOD    9
 UBUDSV SAVING "    UZF RECHARGE" ON UNIT 52 AT TIME STEP  9, STRESS PERIOD    9
 UBUDSV SAVING " SURFACE LEAKAGE" ON UNIT 52 AT TIME STEP  9, STRESS PERIOD    9
 UBUDSV SAVING "       HORT+DUNN" ON UNIT 52 AT TIME STEP  9, STRESS PERIOD    9
 UBUDSV SAVING "  STORAGE CHANGE" ON UNIT 52 AT TIME STEP  9, STRESS PERIOD    9
 UBDSV4 SAVING "           AG WE" ON UNIT  52 AT TIME STEP  9, STRESS PERIOD   9

 HEAD WILL BE SAVED ON UNIT   51 AT END OF TIME STEP    9, STRESS PERIOD    9
 
 SOLVING FOR HEAD 

    ------------------------------------------------
       NWT REQUIRED            1 OUTER ITERATIONS 
       AND A TOTAL OF          2 INNER ITERATIONS.
    ------------------------------------------------

 OUTPUT CONTROL FOR STRESS PERIOD    9   TIME STEP   10
    SAVE HEAD FOR ALL LAYERS
    SAVE BUDGET
 UBDSV1 SAVING "         STORAGE" ON UNIT  52 AT TIME STEP 10, STRESS PERIOD   9
 UBDSV2 SAVING "   CONSTANT HEAD" ON UNIT  52 AT TIME STEP 10, STRESS PERIOD   9
 UBDSV1 SAVING "FLOW RIGHT FACE " ON UNIT  52 AT TIME STEP 10, STRESS PERIOD   9
 UBDSV1 SAVING "FLOW FRONT FACE " ON UNIT  52 AT TIME STEP 10, STRESS PERIOD   9
 UBDSV4 SAVING "  STREAM LEAKAGE" ON UNIT  52 AT TIME STEP 10, STRESS PERIOD   9



 UBUDSV SAVING "           GW ET" ON UNIT 52 AT TIME STEP 10, STRESS PERIOD    9
 UBUDSV SAVING "    UZF RECHARGE" ON UNIT 52 AT TIME STEP 10, STRESS PERIOD    9
 UBUDSV SAVING " SURFACE LEAKAGE" ON UNIT 52 AT TIME STEP 10, STRESS PERIOD    9
 UBUDSV SAVING "       HORT+DUNN" ON UNIT 52 AT TIME STEP 10, STRESS PERIOD    9
 UBUDSV SAVING "  STORAGE CHANGE" ON UNIT 52 AT TIME STEP 10, STRESS PERIOD    9
 UBDSV4 SAVING "           AG WE" ON UNIT  52 AT TIME STEP 10, STRESS PERIOD   9

 HEAD WILL BE SAVED ON UNIT   51 AT END OF TIME STEP   10, STRESS PERIOD    9
 
 SOLVING FOR HEAD 

    ------------------------------------------------
       NWT REQUIRED            1 OUTER ITERATIONS 
       AND A TOTAL OF          2 INNER ITERATIONS.
    ------------------------------------------------

 OUTPUT CONTROL FOR STRESS PERIOD    9   TIME STEP   11
    SAVE HEAD FOR ALL LAYERS
    SAVE BUDGET
 UBDSV1 SAVING "         STORAGE" ON UNIT  52 AT TIME STEP 11, STRESS PERIOD   9
 UBDSV2 SAVING "   CONSTANT HEAD" ON UNIT  52 AT TIME STEP 11, STRESS PERIOD   9
 UBDSV1 SAVING "FLOW RIGHT FACE " ON UNIT  52 AT TIME STEP 11, STRESS PERIOD   9
 UBDSV1 SAVING "FLOW FRONT FACE " ON UNIT  52 AT TIME STEP 11, STRESS PERIOD   9
 UBDSV4 SAVING "  STREAM LEAKAGE" ON UNIT  52 AT TIME STEP 11, STRESS PERIOD   9



 UBUDSV SAVING "           GW ET" ON UNIT 52 AT TIME STEP 11, STRESS PERIOD    9
 UBUDSV SAVING "    UZF RECHARGE" ON UNIT 52 AT TIME STEP 11, STRESS PERIOD    9
 UBUDSV SAVING " SURFACE LEAKAGE" ON UNIT 52 AT TIME STEP 11, STRESS PERIOD    9
 UBUDSV SAVING "       HORT+DUNN" ON UNIT 52 AT TIME STEP 11, STRESS PERIOD    9
 UBUDSV SAVING "  STORAGE CHANGE" ON UNIT 52 AT TIME STEP 11, STRESS PERIOD    9
 UBDSV4 SAVING "           AG WE" ON UNIT  52 AT TIME STEP 11, STRESS PERIOD   9

 HEAD WILL BE SAVED ON UNIT   51 AT END OF TIME STEP   11, STRESS PERIOD    9
 
 SOLVING FOR HEAD 

    ------------------------------------------------
       NWT REQUIRED            1 OUTER ITERATIONS 
       AND A TOTAL OF          1 INNER ITERATIONS.
    ------------------------------------------------

 OUTPUT CONTROL FOR STRESS PERIOD    9   TIME STEP   12
    SAVE HEAD FOR ALL LAYERS
    SAVE BUDGET
 UBDSV1 SAVING "         STORAGE" ON UNIT  52 AT TIME STEP 12, STRESS PERIOD   9
 UBDSV2 SAVING "   CONSTANT HEAD" ON UNIT  52 AT TIME STEP 12, STRESS PERIOD   9
 UBDSV1 SAVING "FLOW RIGHT FACE " ON UNIT  52 AT TIME STEP 12, STRESS PERIOD   9
 UBDSV1 SAVING "FLOW FRONT FACE " ON UNIT  52 AT TIME STEP 12, STRESS PERIOD   9
 UBDSV4 SAVING "  STREAM LEAKAGE" ON UNIT  52 AT TIME STEP 12, STRESS PERIOD   9



 UBUDSV SAVING "           GW ET" ON UNIT 52 AT TIME STEP 12, STRESS PERIOD    9
 UBUDSV SAVING "    UZF RECHARGE" ON UNIT 52 AT TIME STEP 12, STRESS PERIOD    9
 UBUDSV SAVING " SURFACE LEAKAGE" ON UNIT 52 AT TIME STEP 12, STRESS PERIOD    9
 UBUDSV SAVING "       HORT+DUNN" ON UNIT 52 AT TIME STEP 12, STRESS PERIOD    9
 UBUDSV SAVING "  STORAGE CHANGE" ON UNIT 52 AT TIME STEP 12, STRESS PERIOD    9
 UBDSV4 SAVING "           AG WE" ON UNIT  52 AT TIME STEP 12, STRESS PERIOD   9

 HEAD WILL BE SAVED ON UNIT   51 AT END OF TIME STEP   12, STRESS PERIOD    9
 
 SOLVING FOR HEAD 

    ------------------------------------------------
       NWT REQUIRED            1 OUTER ITERATIONS 
       AND A TOTAL OF          1 INNER ITERATIONS.
    ------------------------------------------------

 OUTPUT CONTROL FOR STRESS PERIOD    9   TIME STEP   13
    SAVE HEAD FOR ALL LAYERS
    SAVE BUDGET
 UBDSV1 SAVING "         STORAGE" ON UNIT  52 AT TIME STEP 13, STRESS PERIOD   9
 UBDSV2 SAVING "   CONSTANT HEAD" ON UNIT  52 AT TIME STEP 13, STRESS PERIOD   9
 UBDSV1 SAVING "FLOW RIGHT FACE " ON UNIT  52 AT TIME STEP 13, STRESS PERIOD   9
 UBDSV1 SAVING "FLOW FRONT FACE " ON UNIT  52 AT TIME STEP 13, STRESS PERIOD   9
 UBDSV4 SAVING "  STREAM LEAKAGE" ON UNIT  52 AT TIME STEP 13, STRESS PERIOD   9



 UBUDSV SAVING "           GW ET" ON UNIT 52 AT TIME STEP 13, STRESS PERIOD    9
 UBUDSV SAVING "    UZF RECHARGE" ON UNIT 52 AT TIME STEP 13, STRESS PERIOD    9
 UBUDSV SAVING " SURFACE LEAKAGE" ON UNIT 52 AT TIME STEP 13, STRESS PERIOD    9
 UBUDSV SAVING "       HORT+DUNN" ON UNIT 52 AT TIME STEP 13, STRESS PERIOD    9
 UBUDSV SAVING "  STORAGE CHANGE" ON UNIT 52 AT TIME STEP 13, STRESS PERIOD    9
 UBDSV4 SAVING "           AG WE" ON UNIT  52 AT TIME STEP 13, STRESS PERIOD   9

 HEAD WILL BE SAVED ON UNIT   51 AT END OF TIME STEP   13, STRESS PERIOD    9
 
 SOLVING FOR HEAD 

    ------------------------------------------------
       NWT REQUIRED            1 OUTER ITERATIONS 
       AND A TOTAL OF          1 INNER ITERATIONS.
    ------------------------------------------------

 OUTPUT CONTROL FOR STRESS PERIOD    9   TIME STEP   14
    SAVE HEAD FOR ALL LAYERS
    SAVE BUDGET
 UBDSV1 SAVING "         STORAGE" ON UNIT  52 AT TIME STEP 14, STRESS PERIOD   9
 UBDSV2 SAVING "   CONSTANT HEAD" ON UNIT  52 AT TIME STEP 14, STRESS PERIOD   9
 UBDSV1 SAVING "FLOW RIGHT FACE " ON UNIT  52 AT TIME STEP 14, STRESS PERIOD   9
 UBDSV1 SAVING "FLOW FRONT FACE " ON UNIT  52 AT TIME STEP 14, STRESS PERIOD   9
 UBDSV4 SAVING "  STREAM LEAKAGE" ON UNIT  52 AT TIME STEP 14, STRESS PERIOD   9



 UBUDSV SAVING "           GW ET" ON UNIT 52 AT TIME STEP 14, STRESS PERIOD    9
 UBUDSV SAVING "    UZF RECHARGE" ON UNIT 52 AT TIME STEP 14, STRESS PERIOD    9
 UBUDSV SAVING " SURFACE LEAKAGE" ON UNIT 52 AT TIME STEP 14, STRESS PERIOD    9
 UBUDSV SAVING "       HORT+DUNN" ON UNIT 52 AT TIME STEP 14, STRESS PERIOD    9
 UBUDSV SAVING "  STORAGE CHANGE" ON UNIT 52 AT TIME STEP 14, STRESS PERIOD    9
 UBDSV4 SAVING "           AG WE" ON UNIT  52 AT TIME STEP 14, STRESS PERIOD   9

 HEAD WILL BE SAVED ON UNIT   51 AT END OF TIME STEP   14, STRESS PERIOD    9
 
 SOLVING FOR HEAD 

    ------------------------------------------------
       NWT REQUIRED            1 OUTER ITERATIONS 
       AND A TOTAL OF          1 INNER ITERATIONS.
    ------------------------------------------------

 OUTPUT CONTROL FOR STRESS PERIOD    9   TIME STEP   15
    SAVE HEAD FOR ALL LAYERS
    SAVE BUDGET
 UBDSV1 SAVING "         STORAGE" ON UNIT  52 AT TIME STEP 15, STRESS PERIOD   9
 UBDSV2 SAVING "   CONSTANT HEAD" ON UNIT  52 AT TIME STEP 15, STRESS PERIOD   9
 UBDSV1 SAVING "FLOW RIGHT FACE " ON UNIT  52 AT TIME STEP 15, STRESS PERIOD   9
 UBDSV1 SAVING "FLOW FRONT FACE " ON UNIT  52 AT TIME STEP 15, STRESS PERIOD   9
 UBDSV4 SAVING "  STREAM LEAKAGE" ON UNIT  52 AT TIME STEP 15, STRESS PERIOD   9



 UBUDSV SAVING "           GW ET" ON UNIT 52 AT TIME STEP 15, STRESS PERIOD    9
 UBUDSV SAVING "    UZF RECHARGE" ON UNIT 52 AT TIME STEP 15, STRESS PERIOD    9
 UBUDSV SAVING " SURFACE LEAKAGE" ON UNIT 52 AT TIME STEP 15, STRESS PERIOD    9
 UBUDSV SAVING "       HORT+DUNN" ON UNIT 52 AT TIME STEP 15, STRESS PERIOD    9
 UBUDSV SAVING "  STORAGE CHANGE" ON UNIT 52 AT TIME STEP 15, STRESS PERIOD    9
 UBDSV4 SAVING "           AG WE" ON UNIT  52 AT TIME STEP 15, STRESS PERIOD   9

 HEAD WILL BE SAVED ON UNIT   51 AT END OF TIME STEP   15, STRESS PERIOD    9
 
 SOLVING FOR HEAD 

    ------------------------------------------------
       NWT REQUIRED            1 OUTER ITERATIONS 
       AND A TOTAL OF          1 INNER ITERATIONS.
    ------------------------------------------------

 OUTPUT CONTROL FOR STRESS PERIOD    9   TIME STEP   16
    SAVE HEAD FOR ALL LAYERS
    SAVE BUDGET
 UBDSV1 SAVING "         STORAGE" ON UNIT  52 AT TIME STEP 16, STRESS PERIOD   9
 UBDSV2 SAVING "   CONSTANT HEAD" ON UNIT  52 AT TIME STEP 16, STRESS PERIOD   9
 UBDSV1 SAVING "FLOW RIGHT FACE " ON UNIT  52 AT TIME STEP 16, STRESS PERIOD   9
 UBDSV1 SAVING "FLOW FRONT FACE " ON UNIT  52 AT TIME STEP 16, STRESS PERIOD   9
 UBDSV4 SAVING "  STREAM LEAKAGE" ON UNIT  52 AT TIME STEP 16, STRESS PERIOD   9



 UBUDSV SAVING "           GW ET" ON UNIT 52 AT TIME STEP 16, STRESS PERIOD    9
 UBUDSV SAVING "    UZF RECHARGE" ON UNIT 52 AT TIME STEP 16, STRESS PERIOD    9
 UBUDSV SAVING " SURFACE LEAKAGE" ON UNIT 52 AT TIME STEP 16, STRESS PERIOD    9
 UBUDSV SAVING "       HORT+DUNN" ON UNIT 52 AT TIME STEP 16, STRESS PERIOD    9
 UBUDSV SAVING "  STORAGE CHANGE" ON UNIT 52 AT TIME STEP 16, STRESS PERIOD    9
 UBDSV4 SAVING "           AG WE" ON UNIT  52 AT TIME STEP 16, STRESS PERIOD   9

 HEAD WILL BE SAVED ON UNIT   51 AT END OF TIME STEP   16, STRESS PERIOD    9
 
 SOLVING FOR HEAD 

    ------------------------------------------------
       NWT REQUIRED            1 OUTER ITERATIONS 
       AND A TOTAL OF          1 INNER ITERATIONS.
    ------------------------------------------------

 OUTPUT CONTROL FOR STRESS PERIOD    9   TIME STEP   17
    SAVE HEAD FOR ALL LAYERS
    SAVE BUDGET
 UBDSV1 SAVING "         STORAGE" ON UNIT  52 AT TIME STEP 17, STRESS PERIOD   9
 UBDSV2 SAVING "   CONSTANT HEAD" ON UNIT  52 AT TIME STEP 17, STRESS PERIOD   9
 UBDSV1 SAVING "FLOW RIGHT FACE " ON UNIT  52 AT TIME STEP 17, STRESS PERIOD   9
 UBDSV1 SAVING "FLOW FRONT FACE " ON UNIT  52 AT TIME STEP 17, STRESS PERIOD   9
 UBDSV4 SAVING "  STREAM LEAKAGE" ON UNIT  52 AT TIME STEP 17, STRESS PERIOD   9



 UBUDSV SAVING "           GW ET" ON UNIT 52 AT TIME STEP 17, STRESS PERIOD    9
 UBUDSV SAVING "    UZF RECHARGE" ON UNIT 52 AT TIME STEP 17, STRESS PERIOD    9
 UBUDSV SAVING " SURFACE LEAKAGE" ON UNIT 52 AT TIME STEP 17, STRESS PERIOD    9
 UBUDSV SAVING "       HORT+DUNN" ON UNIT 52 AT TIME STEP 17, STRESS PERIOD    9
 UBUDSV SAVING "  STORAGE CHANGE" ON UNIT 52 AT TIME STEP 17, STRESS PERIOD    9
 UBDSV4 SAVING "           AG WE" ON UNIT  52 AT TIME STEP 17, STRESS PERIOD   9

 HEAD WILL BE SAVED ON UNIT   51 AT END OF TIME STEP   17, STRESS PERIOD    9
 
 SOLVING FOR HEAD 

    ------------------------------------------------
       NWT REQUIRED            1 OUTER ITERATIONS 
       AND A TOTAL OF          1 INNER ITERATIONS.
    ------------------------------------------------

 OUTPUT CONTROL FOR STRESS PERIOD    9   TIME STEP   18
    SAVE HEAD FOR ALL LAYERS
    SAVE BUDGET
 UBDSV1 SAVING "         STORAGE" ON UNIT  52 AT TIME STEP 18, STRESS PERIOD   9
 UBDSV2 SAVING "   CONSTANT HEAD" ON UNIT  52 AT TIME STEP 18, STRESS PERIOD   9
 UBDSV1 SAVING "FLOW RIGHT FACE " ON UNIT  52 AT TIME STEP 18, STRESS PERIOD   9
 UBDSV1 SAVING "FLOW FRONT FACE " ON UNIT  52 AT TIME STEP 18, STRESS PERIOD   9
 UBDSV4 SAVING "  STREAM LEAKAGE" ON UNIT  52 AT TIME STEP 18, STRESS PERIOD   9



 UBUDSV SAVING "           GW ET" ON UNIT 52 AT TIME STEP 18, STRESS PERIOD    9
 UBUDSV SAVING "    UZF RECHARGE" ON UNIT 52 AT TIME STEP 18, STRESS PERIOD    9
 UBUDSV SAVING " SURFACE LEAKAGE" ON UNIT 52 AT TIME STEP 18, STRESS PERIOD    9
 UBUDSV SAVING "       HORT+DUNN" ON UNIT 52 AT TIME STEP 18, STRESS PERIOD    9
 UBUDSV SAVING "  STORAGE CHANGE" ON UNIT 52 AT TIME STEP 18, STRESS PERIOD    9
 UBDSV4 SAVING "           AG WE" ON UNIT  52 AT TIME STEP 18, STRESS PERIOD   9

 HEAD WILL BE SAVED ON UNIT   51 AT END OF TIME STEP   18, STRESS PERIOD    9
 
 SOLVING FOR HEAD 

    ------------------------------------------------
       NWT REQUIRED            1 OUTER ITERATIONS 
       AND A TOTAL OF          1 INNER ITERATIONS.
    ------------------------------------------------

 OUTPUT CONTROL FOR STRESS PERIOD    9   TIME STEP   19
    SAVE HEAD FOR ALL LAYERS
    SAVE BUDGET
 UBDSV1 SAVING "         STORAGE" ON UNIT  52 AT TIME STEP 19, STRESS PERIOD   9
 UBDSV2 SAVING "   CONSTANT HEAD" ON UNIT  52 AT TIME STEP 19, STRESS PERIOD   9
 UBDSV1 SAVING "FLOW RIGHT FACE " ON UNIT  52 AT TIME STEP 19, STRESS PERIOD   9
 UBDSV1 SAVING "FLOW FRONT FACE " ON UNIT  52 AT TIME STEP 19, STRESS PERIOD   9
 UBDSV4 SAVING "  STREAM LEAKAGE" ON UNIT  52 AT TIME STEP 19, STRESS PERIOD   9



 UBUDSV SAVING "           GW ET" ON UNIT 52 AT TIME STEP 19, STRESS PERIOD    9
 UBUDSV SAVING "    UZF RECHARGE" ON UNIT 52 AT TIME STEP 19, STRESS PERIOD    9
 UBUDSV SAVING " SURFACE LEAKAGE" ON UNIT 52 AT TIME STEP 19, STRESS PERIOD    9
 UBUDSV SAVING "       HORT+DUNN" ON UNIT 52 AT TIME STEP 19, STRESS PERIOD    9
 UBUDSV SAVING "  STORAGE CHANGE" ON UNIT 52 AT TIME STEP 19, STRESS PERIOD    9
 UBDSV4 SAVING "           AG WE" ON UNIT  52 AT TIME STEP 19, STRESS PERIOD   9

 HEAD WILL BE SAVED ON UNIT   51 AT END OF TIME STEP   19, STRESS PERIOD    9
 
 SOLVING FOR HEAD 

    ------------------------------------------------
       NWT REQUIRED            1 OUTER ITERATIONS 
       AND A TOTAL OF          1 INNER ITERATIONS.
    ------------------------------------------------

 OUTPUT CONTROL FOR STRESS PERIOD    9   TIME STEP   20
    SAVE HEAD FOR ALL LAYERS
    SAVE BUDGET
 UBDSV1 SAVING "         STORAGE" ON UNIT  52 AT TIME STEP 20, STRESS PERIOD   9
 UBDSV2 SAVING "   CONSTANT HEAD" ON UNIT  52 AT TIME STEP 20, STRESS PERIOD   9
 UBDSV1 SAVING "FLOW RIGHT FACE " ON UNIT  52 AT TIME STEP 20, STRESS PERIOD   9
 UBDSV1 SAVING "FLOW FRONT FACE " ON UNIT  52 AT TIME STEP 20, STRESS PERIOD   9
 UBDSV4 SAVING "  STREAM LEAKAGE" ON UNIT  52 AT TIME STEP 20, STRESS PERIOD   9



 UBUDSV SAVING "           GW ET" ON UNIT 52 AT TIME STEP 20, STRESS PERIOD    9
 UBUDSV SAVING "    UZF RECHARGE" ON UNIT 52 AT TIME STEP 20, STRESS PERIOD    9
 UBUDSV SAVING " SURFACE LEAKAGE" ON UNIT 52 AT TIME STEP 20, STRESS PERIOD    9
 UBUDSV SAVING "       HORT+DUNN" ON UNIT 52 AT TIME STEP 20, STRESS PERIOD    9
 UBUDSV SAVING "  STORAGE CHANGE" ON UNIT 52 AT TIME STEP 20, STRESS PERIOD    9
 UBDSV4 SAVING "           AG WE" ON UNIT  52 AT TIME STEP 20, STRESS PERIOD   9

 HEAD WILL BE SAVED ON UNIT   51 AT END OF TIME STEP   20, STRESS PERIOD    9
 
 SOLVING FOR HEAD 

    ------------------------------------------------
       NWT REQUIRED            1 OUTER ITERATIONS 
       AND A TOTAL OF          1 INNER ITERATIONS.
    ------------------------------------------------

 OUTPUT CONTROL FOR STRESS PERIOD    9   TIME STEP   21
    SAVE HEAD FOR ALL LAYERS
    SAVE BUDGET
 UBDSV1 SAVING "         STORAGE" ON UNIT  52 AT TIME STEP 21, STRESS PERIOD   9
 UBDSV2 SAVING "   CONSTANT HEAD" ON UNIT  52 AT TIME STEP 21, STRESS PERIOD   9
 UBDSV1 SAVING "FLOW RIGHT FACE " ON UNIT  52 AT TIME STEP 21, STRESS PERIOD   9
 UBDSV1 SAVING "FLOW FRONT FACE " ON UNIT  52 AT TIME STEP 21, STRESS PERIOD   9
 UBDSV4 SAVING "  STREAM LEAKAGE" ON UNIT  52 AT TIME STEP 21, STRESS PERIOD   9



 UBUDSV SAVING "           GW ET" ON UNIT 52 AT TIME STEP 21, STRESS PERIOD    9
 UBUDSV SAVING "    UZF RECHARGE" ON UNIT 52 AT TIME STEP 21, STRESS PERIOD    9
 UBUDSV SAVING " SURFACE LEAKAGE" ON UNIT 52 AT TIME STEP 21, STRESS PERIOD    9
 UBUDSV SAVING "       HORT+DUNN" ON UNIT 52 AT TIME STEP 21, STRESS PERIOD    9
 UBUDSV SAVING "  STORAGE CHANGE" ON UNIT 52 AT TIME STEP 21, STRESS PERIOD    9
 UBDSV4 SAVING "           AG WE" ON UNIT  52 AT TIME STEP 21, STRESS PERIOD   9

 HEAD WILL BE SAVED ON UNIT   51 AT END OF TIME STEP   21, STRESS PERIOD    9
 
 SOLVING FOR HEAD 

    ------------------------------------------------
       NWT REQUIRED            1 OUTER ITERATIONS 
       AND A TOTAL OF          1 INNER ITERATIONS.
    ------------------------------------------------

 OUTPUT CONTROL FOR STRESS PERIOD    9   TIME STEP   22
    SAVE HEAD FOR ALL LAYERS
    SAVE BUDGET
 UBDSV1 SAVING "         STORAGE" ON UNIT  52 AT TIME STEP 22, STRESS PERIOD   9
 UBDSV2 SAVING "   CONSTANT HEAD" ON UNIT  52 AT TIME STEP 22, STRESS PERIOD   9
 UBDSV1 SAVING "FLOW RIGHT FACE " ON UNIT  52 AT TIME STEP 22, STRESS PERIOD   9
 UBDSV1 SAVING "FLOW FRONT FACE " ON UNIT  52 AT TIME STEP 22, STRESS PERIOD   9
 UBDSV4 SAVING "  STREAM LEAKAGE" ON UNIT  52 AT TIME STEP 22, STRESS PERIOD   9



 UBUDSV SAVING "           GW ET" ON UNIT 52 AT TIME STEP 22, STRESS PERIOD    9
 UBUDSV SAVING "    UZF RECHARGE" ON UNIT 52 AT TIME STEP 22, STRESS PERIOD    9
 UBUDSV SAVING " SURFACE LEAKAGE" ON UNIT 52 AT TIME STEP 22, STRESS PERIOD    9
 UBUDSV SAVING "       HORT+DUNN" ON UNIT 52 AT TIME STEP 22, STRESS PERIOD    9
 UBUDSV SAVING "  STORAGE CHANGE" ON UNIT 52 AT TIME STEP 22, STRESS PERIOD    9
 UBDSV4 SAVING "           AG WE" ON UNIT  52 AT TIME STEP 22, STRESS PERIOD   9

 HEAD WILL BE SAVED ON UNIT   51 AT END OF TIME STEP   22, STRESS PERIOD    9
 
 SOLVING FOR HEAD 

    ------------------------------------------------
       NWT REQUIRED            1 OUTER ITERATIONS 
       AND A TOTAL OF          1 INNER ITERATIONS.
    ------------------------------------------------

 OUTPUT CONTROL FOR STRESS PERIOD    9   TIME STEP   23
    SAVE HEAD FOR ALL LAYERS
    SAVE BUDGET
 UBDSV1 SAVING "         STORAGE" ON UNIT  52 AT TIME STEP 23, STRESS PERIOD   9
 UBDSV2 SAVING "   CONSTANT HEAD" ON UNIT  52 AT TIME STEP 23, STRESS PERIOD   9
 UBDSV1 SAVING "FLOW RIGHT FACE " ON UNIT  52 AT TIME STEP 23, STRESS PERIOD   9
 UBDSV1 SAVING "FLOW FRONT FACE " ON UNIT  52 AT TIME STEP 23, STRESS PERIOD   9
 UBDSV4 SAVING "  STREAM LEAKAGE" ON UNIT  52 AT TIME STEP 23, STRESS PERIOD   9



 UBUDSV SAVING "           GW ET" ON UNIT 52 AT TIME STEP 23, STRESS PERIOD    9
 UBUDSV SAVING "    UZF RECHARGE" ON UNIT 52 AT TIME STEP 23, STRESS PERIOD    9
 UBUDSV SAVING " SURFACE LEAKAGE" ON UNIT 52 AT TIME STEP 23, STRESS PERIOD    9
 UBUDSV SAVING "       HORT+DUNN" ON UNIT 52 AT TIME STEP 23, STRESS PERIOD    9
 UBUDSV SAVING "  STORAGE CHANGE" ON UNIT 52 AT TIME STEP 23, STRESS PERIOD    9
 UBDSV4 SAVING "           AG WE" ON UNIT  52 AT TIME STEP 23, STRESS PERIOD   9

 HEAD WILL BE SAVED ON UNIT   51 AT END OF TIME STEP   23, STRESS PERIOD    9
 
 SOLVING FOR HEAD 

    ------------------------------------------------
       NWT REQUIRED            1 OUTER ITERATIONS 
       AND A TOTAL OF          1 INNER ITERATIONS.
    ------------------------------------------------

 OUTPUT CONTROL FOR STRESS PERIOD    9   TIME STEP   24
    SAVE HEAD FOR ALL LAYERS
    SAVE BUDGET
 UBDSV1 SAVING "         STORAGE" ON UNIT  52 AT TIME STEP 24, STRESS PERIOD   9
 UBDSV2 SAVING "   CONSTANT HEAD" ON UNIT  52 AT TIME STEP 24, STRESS PERIOD   9
 UBDSV1 SAVING "FLOW RIGHT FACE " ON UNIT  52 AT TIME STEP 24, STRESS PERIOD   9
 UBDSV1 SAVING "FLOW FRONT FACE " ON UNIT  52 AT TIME STEP 24, STRESS PERIOD   9
 UBDSV4 SAVING "  STREAM LEAKAGE" ON UNIT  52 AT TIME STEP 24, STRESS PERIOD   9



 UBUDSV SAVING "           GW ET" ON UNIT 52 AT TIME STEP 24, STRESS PERIOD    9
 UBUDSV SAVING "    UZF RECHARGE" ON UNIT 52 AT TIME STEP 24, STRESS PERIOD    9
 UBUDSV SAVING " SURFACE LEAKAGE" ON UNIT 52 AT TIME STEP 24, STRESS PERIOD    9
 UBUDSV SAVING "       HORT+DUNN" ON UNIT 52 AT TIME STEP 24, STRESS PERIOD    9
 UBUDSV SAVING "  STORAGE CHANGE" ON UNIT 52 AT TIME STEP 24, STRESS PERIOD    9
 UBDSV4 SAVING "           AG WE" ON UNIT  52 AT TIME STEP 24, STRESS PERIOD   9

 HEAD WILL BE SAVED ON UNIT   51 AT END OF TIME STEP   24, STRESS PERIOD    9
 
 SOLVING FOR HEAD 

    ------------------------------------------------
       NWT REQUIRED            1 OUTER ITERATIONS 
       AND A TOTAL OF          1 INNER ITERATIONS.
    ------------------------------------------------

 OUTPUT CONTROL FOR STRESS PERIOD    9   TIME STEP   25
    SAVE HEAD FOR ALL LAYERS
    SAVE BUDGET
 UBDSV1 SAVING "         STORAGE" ON UNIT  52 AT TIME STEP 25, STRESS PERIOD   9
 UBDSV2 SAVING "   CONSTANT HEAD" ON UNIT  52 AT TIME STEP 25, STRESS PERIOD   9
 UBDSV1 SAVING "FLOW RIGHT FACE " ON UNIT  52 AT TIME STEP 25, STRESS PERIOD   9
 UBDSV1 SAVING "FLOW FRONT FACE " ON UNIT  52 AT TIME STEP 25, STRESS PERIOD   9
 UBDSV4 SAVING "  STREAM LEAKAGE" ON UNIT  52 AT TIME STEP 25, STRESS PERIOD   9



 UBUDSV SAVING "           GW ET" ON UNIT 52 AT TIME STEP 25, STRESS PERIOD    9
 UBUDSV SAVING "    UZF RECHARGE" ON UNIT 52 AT TIME STEP 25, STRESS PERIOD    9
 UBUDSV SAVING " SURFACE LEAKAGE" ON UNIT 52 AT TIME STEP 25, STRESS PERIOD    9
 UBUDSV SAVING "       HORT+DUNN" ON UNIT 52 AT TIME STEP 25, STRESS PERIOD    9
 UBUDSV SAVING "  STORAGE CHANGE" ON UNIT 52 AT TIME STEP 25, STRESS PERIOD    9
 UBDSV4 SAVING "           AG WE" ON UNIT  52 AT TIME STEP 25, STRESS PERIOD   9

 HEAD WILL BE SAVED ON UNIT   51 AT END OF TIME STEP   25, STRESS PERIOD    9
 
 SOLVING FOR HEAD 

    ------------------------------------------------
       NWT REQUIRED            1 OUTER ITERATIONS 
       AND A TOTAL OF          1 INNER ITERATIONS.
    ------------------------------------------------

 OUTPUT CONTROL FOR STRESS PERIOD    9   TIME STEP   26
    SAVE HEAD FOR ALL LAYERS
    SAVE BUDGET
 UBDSV1 SAVING "         STORAGE" ON UNIT  52 AT TIME STEP 26, STRESS PERIOD   9
 UBDSV2 SAVING "   CONSTANT HEAD" ON UNIT  52 AT TIME STEP 26, STRESS PERIOD   9
 UBDSV1 SAVING "FLOW RIGHT FACE " ON UNIT  52 AT TIME STEP 26, STRESS PERIOD   9
 UBDSV1 SAVING "FLOW FRONT FACE " ON UNIT  52 AT TIME STEP 26, STRESS PERIOD   9
 UBDSV4 SAVING "  STREAM LEAKAGE" ON UNIT  52 AT TIME STEP 26, STRESS PERIOD   9



 UBUDSV SAVING "           GW ET" ON UNIT 52 AT TIME STEP 26, STRESS PERIOD    9
 UBUDSV SAVING "    UZF RECHARGE" ON UNIT 52 AT TIME STEP 26, STRESS PERIOD    9
 UBUDSV SAVING " SURFACE LEAKAGE" ON UNIT 52 AT TIME STEP 26, STRESS PERIOD    9
 UBUDSV SAVING "       HORT+DUNN" ON UNIT 52 AT TIME STEP 26, STRESS PERIOD    9
 UBUDSV SAVING "  STORAGE CHANGE" ON UNIT 52 AT TIME STEP 26, STRESS PERIOD    9
 UBDSV4 SAVING "           AG WE" ON UNIT  52 AT TIME STEP 26, STRESS PERIOD   9

 HEAD WILL BE SAVED ON UNIT   51 AT END OF TIME STEP   26, STRESS PERIOD    9
 
 SOLVING FOR HEAD 

    ------------------------------------------------
       NWT REQUIRED            1 OUTER ITERATIONS 
       AND A TOTAL OF          1 INNER ITERATIONS.
    ------------------------------------------------

 OUTPUT CONTROL FOR STRESS PERIOD    9   TIME STEP   27
    SAVE HEAD FOR ALL LAYERS
    SAVE BUDGET
 UBDSV1 SAVING "         STORAGE" ON UNIT  52 AT TIME STEP 27, STRESS PERIOD   9
 UBDSV2 SAVING "   CONSTANT HEAD" ON UNIT  52 AT TIME STEP 27, STRESS PERIOD   9
 UBDSV1 SAVING "FLOW RIGHT FACE " ON UNIT  52 AT TIME STEP 27, STRESS PERIOD   9
 UBDSV1 SAVING "FLOW FRONT FACE " ON UNIT  52 AT TIME STEP 27, STRESS PERIOD   9
 UBDSV4 SAVING "  STREAM LEAKAGE" ON UNIT  52 AT TIME STEP 27, STRESS PERIOD   9



 UBUDSV SAVING "           GW ET" ON UNIT 52 AT TIME STEP 27, STRESS PERIOD    9
 UBUDSV SAVING "    UZF RECHARGE" ON UNIT 52 AT TIME STEP 27, STRESS PERIOD    9
 UBUDSV SAVING " SURFACE LEAKAGE" ON UNIT 52 AT TIME STEP 27, STRESS PERIOD    9
 UBUDSV SAVING "       HORT+DUNN" ON UNIT 52 AT TIME STEP 27, STRESS PERIOD    9
 UBUDSV SAVING "  STORAGE CHANGE" ON UNIT 52 AT TIME STEP 27, STRESS PERIOD    9
 UBDSV4 SAVING "           AG WE" ON UNIT  52 AT TIME STEP 27, STRESS PERIOD   9

 HEAD WILL BE SAVED ON UNIT   51 AT END OF TIME STEP   27, STRESS PERIOD    9
 
 SOLVING FOR HEAD 

    ------------------------------------------------
       NWT REQUIRED            1 OUTER ITERATIONS 
       AND A TOTAL OF          1 INNER ITERATIONS.
    ------------------------------------------------

 OUTPUT CONTROL FOR STRESS PERIOD    9   TIME STEP   28
    SAVE HEAD FOR ALL LAYERS
    SAVE BUDGET
 UBDSV1 SAVING "         STORAGE" ON UNIT  52 AT TIME STEP 28, STRESS PERIOD   9
 UBDSV2 SAVING "   CONSTANT HEAD" ON UNIT  52 AT TIME STEP 28, STRESS PERIOD   9
 UBDSV1 SAVING "FLOW RIGHT FACE " ON UNIT  52 AT TIME STEP 28, STRESS PERIOD   9
 UBDSV1 SAVING "FLOW FRONT FACE " ON UNIT  52 AT TIME STEP 28, STRESS PERIOD   9
 UBDSV4 SAVING "  STREAM LEAKAGE" ON UNIT  52 AT TIME STEP 28, STRESS PERIOD   9



 UBUDSV SAVING "           GW ET" ON UNIT 52 AT TIME STEP 28, STRESS PERIOD    9
 UBUDSV SAVING "    UZF RECHARGE" ON UNIT 52 AT TIME STEP 28, STRESS PERIOD    9
 UBUDSV SAVING " SURFACE LEAKAGE" ON UNIT 52 AT TIME STEP 28, STRESS PERIOD    9
 UBUDSV SAVING "       HORT+DUNN" ON UNIT 52 AT TIME STEP 28, STRESS PERIOD    9
 UBUDSV SAVING "  STORAGE CHANGE" ON UNIT 52 AT TIME STEP 28, STRESS PERIOD    9
 UBDSV4 SAVING "           AG WE" ON UNIT  52 AT TIME STEP 28, STRESS PERIOD   9

 HEAD WILL BE SAVED ON UNIT   51 AT END OF TIME STEP   28, STRESS PERIOD    9
 
 SOLVING FOR HEAD 

    ------------------------------------------------
       NWT REQUIRED            1 OUTER ITERATIONS 
       AND A TOTAL OF          1 INNER ITERATIONS.
    ------------------------------------------------

 OUTPUT CONTROL FOR STRESS PERIOD    9   TIME STEP   29
    SAVE HEAD FOR ALL LAYERS
    SAVE BUDGET
 UBDSV1 SAVING "         STORAGE" ON UNIT  52 AT TIME STEP 29, STRESS PERIOD   9
 UBDSV2 SAVING "   CONSTANT HEAD" ON UNIT  52 AT TIME STEP 29, STRESS PERIOD   9
 UBDSV1 SAVING "FLOW RIGHT FACE " ON UNIT  52 AT TIME STEP 29, STRESS PERIOD   9
 UBDSV1 SAVING "FLOW FRONT FACE " ON UNIT  52 AT TIME STEP 29, STRESS PERIOD   9
 UBDSV4 SAVING "  STREAM LEAKAGE" ON UNIT  52 AT TIME STEP 29, STRESS PERIOD   9



 UBUDSV SAVING "           GW ET" ON UNIT 52 AT TIME STEP 29, STRESS PERIOD    9
 UBUDSV SAVING "    UZF RECHARGE" ON UNIT 52 AT TIME STEP 29, STRESS PERIOD    9
 UBUDSV SAVING " SURFACE LEAKAGE" ON UNIT 52 AT TIME STEP 29, STRESS PERIOD    9
 UBUDSV SAVING "       HORT+DUNN" ON UNIT 52 AT TIME STEP 29, STRESS PERIOD    9
 UBUDSV SAVING "  STORAGE CHANGE" ON UNIT 52 AT TIME STEP 29, STRESS PERIOD    9
 UBDSV4 SAVING "           AG WE" ON UNIT  52 AT TIME STEP 29, STRESS PERIOD   9

 HEAD WILL BE SAVED ON UNIT   51 AT END OF TIME STEP   29, STRESS PERIOD    9
 
 SOLVING FOR HEAD 

    ------------------------------------------------
       NWT REQUIRED            1 OUTER ITERATIONS 
       AND A TOTAL OF          1 INNER ITERATIONS.
    ------------------------------------------------

 OUTPUT CONTROL FOR STRESS PERIOD    9   TIME STEP   30
    SAVE HEAD FOR ALL LAYERS
    SAVE BUDGET
 UBDSV1 SAVING "         STORAGE" ON UNIT  52 AT TIME STEP 30, STRESS PERIOD   9
 UBDSV2 SAVING "   CONSTANT HEAD" ON UNIT  52 AT TIME STEP 30, STRESS PERIOD   9
 UBDSV1 SAVING "FLOW RIGHT FACE " ON UNIT  52 AT TIME STEP 30, STRESS PERIOD   9
 UBDSV1 SAVING "FLOW FRONT FACE " ON UNIT  52 AT TIME STEP 30, STRESS PERIOD   9
 UBDSV4 SAVING "  STREAM LEAKAGE" ON UNIT  52 AT TIME STEP 30, STRESS PERIOD   9



 UBUDSV SAVING "           GW ET" ON UNIT 52 AT TIME STEP 30, STRESS PERIOD    9
 UBUDSV SAVING "    UZF RECHARGE" ON UNIT 52 AT TIME STEP 30, STRESS PERIOD    9
 UBUDSV SAVING " SURFACE LEAKAGE" ON UNIT 52 AT TIME STEP 30, STRESS PERIOD    9
 UBUDSV SAVING "       HORT+DUNN" ON UNIT 52 AT TIME STEP 30, STRESS PERIOD    9
 UBUDSV SAVING "  STORAGE CHANGE" ON UNIT 52 AT TIME STEP 30, STRESS PERIOD    9


UNSATURATED ZONE PACKAGE VOLUMETRIC BUDGET FOR  TIME STEP    30 STRESS PERIOD    9
  ------------------------------------------------------------------------------



     CUMULATIVE VOLUMES      L**3       RATES FOR THIS TIME STEP      L**3/T
     ------------------                 ------------------------

           IN:                                      IN:
           ---                                      ---
        INFILTRATION =      129854.4544          INFILTRATION =         137.7582

          OUT:                                     OUT:
          ----                                     ----
              UZF ET =      154362.1143                UZF ET =         123.2818
        UZF RECHARGE =        9837.5482          UZF RECHARGE =           8.2700

            IN - OUT =      -34345.2081              IN - OUT =           6.2065

          STORAGE:                                 STORAGE:
          --------                                 --------
      STORAGE CHANGE =      -34345.4746        STORAGE CHANGE =           6.2065

 PERCENT DISCREPANCY IS DIFFERENCE BETWEEN IN-OUT MINUS CHANGE IN STORAGE
 DIVIDED BY THE AVERAGE OF IN AND OUT TIMES 100

 PERCENT DISCREPANCY =           0.00     PERCENT DISCREPANCY =           0.00






 UBDSV4 SAVING "           AG WE" ON UNIT  52 AT TIME STEP 30, STRESS PERIOD   9
1
  VOLUMETRIC BUDGET FOR AGRICULTURAL FIELDS AT TIME STEP   30, STRESS PERIOD   9
  ------------------------------------------------------------------------------

     CUMULATIVE VOLUMES      L**3       RATES FOR THIS TIME STEP      L**3/T
     ------------------                 ------------------------

           IN:                                      IN:
           ---                                      ---
               AG WELLS  =        3140.7380                 AG WELLS  =           9.2009
      DIVERSION SEGMENTS =        4761.5713        DIVERSION SEGMENTS =          29.2009
           GW IRRIGATION =           0.0000             GW IRRIGATION =           0.0000
           SW IRRIGATION =           0.0000             SW IRRIGATION =           0.0000
        SYSTEM LOSSES GW =           0.0000          SYSTEM LOSSES GW =           0.0000
        SYSTEM LOSSES SW =           0.0000          SYSTEM LOSSES SW =           0.0000

                TOTAL IN =        7902.3096                  TOTAL IN =          38.4019

          OUT:                                     OUT:
          ----                                     ----
               AG WELLS  =           0.0000                 AG WELLS  =           0.0000
      DIVERSION SEGMENTS =           0.0000        DIVERSION SEGMENTS =           0.0000
           GW IRRIGATION =        3140.7380             GW IRRIGATION =           9.2009
           SW IRRIGATION =        4761.5713             SW IRRIGATION =          29.2009
        SYSTEM LOSSES GW =           0.0000          SYSTEM LOSSES GW =           0.0000
        SYSTEM LOSSES SW =           0.0000          SYSTEM LOSSES SW =           0.0000

               TOTAL OUT =        7902.3096                 TOTAL OUT =          38.4019

                IN - OUT =           0.0000                  IN - OUT =           0.0000

     PERCENT DISCREPANCY =           0.00         PERCENT DISCREPANCY =           0.00




 HEAD WILL BE SAVED ON UNIT   51 AT END OF TIME STEP   30, STRESS PERIOD    9
1
  VOLUMETRIC BUDGET FOR ENTIRE MODEL AT END OF TIME STEP   30, STRESS PERIOD   9
  ------------------------------------------------------------------------------

     CUMULATIVE VOLUMES      L**3       RATES FOR THIS TIME STEP      L**3/T
     ------------------                 ------------------------

           IN:                                      IN:
           ---                                      ---
             STORAGE     =         944.0638               STORAGE     =           3.3005
       CONSTANT HEAD     =           0.0000         CONSTANT HEAD     =           0.0000
      STREAM LEAKAGE     =          20.7543        STREAM LEAKAGE     =       7.6023E-02
        UZF RECHARGE     =        9837.5488          UZF RECHARGE     =           8.2700
               GW ET     =           0.0000                 GW ET     =           0.0000
     SURFACE LEAKAGE     =           0.0000       SURFACE LEAKAGE     =           0.0000
           AG WELLS      =           0.0000             AG WELLS      =           0.0000

                TOTAL IN =       10802.3672                  TOTAL IN =          11.6465

          OUT:                                     OUT:
          ----                                     ----
             STORAGE     =        6883.5542               STORAGE     =           2.4857
       CONSTANT HEAD     =           0.0000         CONSTANT HEAD     =           0.0000
      STREAM LEAKAGE     =           0.0000        STREAM LEAKAGE     =           0.0000
        UZF RECHARGE     =           0.0000          UZF RECHARGE     =           0.0000
               GW ET     =           0.0000                 GW ET     =           0.0000
     SURFACE LEAKAGE     =           0.0000       SURFACE LEAKAGE     =           0.0000
           AG WELLS      =        3140.7380             AG WELLS      =           9.2009

               TOTAL OUT =       10024.2920                 TOTAL OUT =          11.6866

                IN - OUT =         778.0752                  IN - OUT =      -4.0087E-02

     PERCENT DISCREPANCY =           7.47         PERCENT DISCREPANCY =          -0.34






         TIME SUMMARY AT END OF TIME STEP   30 IN STRESS PERIOD    9
                    SECONDS     MINUTES      HOURS       DAYS        YEARS
                    -----------------------------------------------------------
   TIME STEP LENGTH  86400.      1440.0      24.000      1.0000     2.73785E-03
 STRESS PERIOD TIME 2.59200E+06  43200.      720.00      30.000     8.21355E-02
         TOTAL TIME 2.35872E+07 3.93120E+05  6552.0      273.00     0.74743    
1
1
                            STRESS PERIOD NO.   10, LENGTH =   31.00000    
                            -----------------------------------------------

                              NUMBER OF TIME STEPS =    31

                               MULTIPLIER FOR DELT =     1.000

                            INITIAL TIME STEP SIZE =   1.000000    



 CLASSIFICATION & COUNT OF STREAM SEGMENTS BASED ON SOURCE OF INFLOW:

                HEADWATER     DIVERSION     RECEIVES TRIBUTARY FLOW
                ---------     ---------     -----------------------
                     1              2               9



                    INPUT DATA FOR EACH STREAM SEGMENT
 ---------------------------------------------------------------------------------------------

 SEGMENT    SEG.     INFLOW   OVERLAND   STREAM    STREAM   ICALC  OUTFLOW  DIVERSION PRIORITY
    NO.    LENGTH     RATE     RUNOFF      ET       PPT.    METH.  TO SEG.  FROM SEG.    NO.

      1  1.000E+02 5.000E+01 0.000E+00 0.000E+00 0.000E+00    1        2        0        0
      2  1.000E+02 0.000E+00 0.000E+00 0.000E+00 0.000E+00    1        3        0        0
      3  1.000E+02 0.000E+00 0.000E+00 0.000E+00 0.000E+00    1        4        0        0
      4  1.000E+02 0.000E+00 0.000E+00 0.000E+00 0.000E+00    1        5        0        0
      5  1.000E+02 0.000E+00 0.000E+00 0.000E+00 0.000E+00    1        6        0        0
      6  1.000E+02 0.000E+00 0.000E+00 0.000E+00 0.000E+00    1        7        0        0
      7  1.000E+02 0.000E+00 0.000E+00 0.000E+00 0.000E+00    1        8        0        0
      8  1.000E+02 0.000E+00 0.000E+00 0.000E+00 0.000E+00    1        9        0        0
      9  1.000E+02 0.000E+00 0.000E+00 0.000E+00 0.000E+00    1       10        0        0
     10  1.000E+02 0.000E+00 0.000E+00 0.000E+00 0.000E+00    1        0        0        0
     11  1.000E+02 2.000E+01 0.000E+00 0.000E+00 0.000E+00    1        0        3        0
     12  1.000E+02 1.000E+01 0.000E+00 0.000E+00 0.000E+00    1        0        5        0


         STREAMBED PROPERTIES AND STREAM DIMENSIONS

 SEGMENT     BED HYD. COND.      BED THICKNESS     ELEV.-TOP OF BED     WIDTH OF STREAM     DEPTH OF STREAM    STREAM ROUGHNESS
    No.     UPPER     LOWER     UPPER     LOWER     UPPER     LOWER     UPPER     LOWER     UPPER     LOWER   CHANNEL      BANK

     1  1.500E-05 1.500E-05 5.000E-01 5.000E-01 9.900E+01 9.898E+01 5.000E+00 5.000E+00                     3.000E-02
     2  1.500E-05 1.500E-05 5.000E-01 5.000E-01 9.898E+01 9.896E+01 5.000E+00 5.000E+00                     3.000E-02
     3  1.500E-05 1.500E-05 5.000E-01 5.000E-01 9.896E+01 9.894E+01 5.000E+00 5.000E+00                     3.000E-02
     4  1.500E-05 1.500E-05 5.000E-01 5.000E-01 9.894E+01 9.892E+01 5.000E+00 5.000E+00                     3.000E-02
     5  1.500E-05 1.500E-05 5.000E-01 5.000E-01 9.892E+01 9.890E+01 5.000E+00 5.000E+00                     3.000E-02
     6  1.500E-05 1.500E-05 5.000E-01 5.000E-01 9.890E+01 9.888E+01 5.000E+00 5.000E+00                     3.000E-02
     7  1.500E-05 1.500E-05 5.000E-01 5.000E-01 9.888E+01 9.886E+01 5.000E+00 5.000E+00                     3.000E-02
     8  1.500E-05 1.500E-05 5.000E-01 5.000E-01 9.886E+01 9.884E+01 5.000E+00 5.000E+00                     3.000E-02
     9  1.500E-05 1.500E-05 5.000E-01 5.000E-01 9.884E+01 9.882E+01 5.000E+00 5.000E+00                     3.000E-02
    10  1.500E-05 1.500E-05 5.000E-01 5.000E-01 9.882E+01 9.880E+01 5.000E+00 5.000E+00                     3.000E-02
    11  1.500E-05 1.500E-05 5.000E-01 5.000E-01 9.894E+01 9.892E+01 5.000E+00 5.000E+00                     3.000E-02
    12  1.500E-05 1.500E-05 5.000E-01 5.000E-01 9.890E+01 9.888E+01 5.000E+00 5.000E+00                     3.000E-02






            AREAL INFILTRATION RATE
 READING ON UNIT   19 WITH FORMAT: (10E15.6)           



                            ET RATE
 READING ON UNIT   19 WITH FORMAT: (10E15.6)           



                ET EXTINCTION DEPTH
 READING ON UNIT   19 WITH FORMAT: (10E15.6)           



           EXTINCTION WATER CONTENT
 READING ON UNIT   19 WITH FORMAT: (10E15.6)           

 PROCESSING AG STRESS PERIOD DATA

 READING AG STRESS PERIOD DATA

 READING IRRIGATION SEGMENT

 READING IRRIGATION WELL

 READING SUPPLEMENTAL WELL

 END PROCESSING AG STRESS PERIOD DATA OPTIONS
 
 SOLVING FOR HEAD 

    ------------------------------------------------
       NWT REQUIRED            1 OUTER ITERATIONS 
       AND A TOTAL OF          2 INNER ITERATIONS.
    ------------------------------------------------

 OUTPUT CONTROL FOR STRESS PERIOD   10   TIME STEP    1
    SAVE HEAD FOR ALL LAYERS
    SAVE BUDGET
 UBDSV1 SAVING "         STORAGE" ON UNIT  52 AT TIME STEP  1, STRESS PERIOD  10
 UBDSV2 SAVING "   CONSTANT HEAD" ON UNIT  52 AT TIME STEP  1, STRESS PERIOD  10
 UBDSV1 SAVING "FLOW RIGHT FACE " ON UNIT  52 AT TIME STEP  1, STRESS PERIOD  10
 UBDSV1 SAVING "FLOW FRONT FACE " ON UNIT  52 AT TIME STEP  1, STRESS PERIOD  10
 UBDSV4 SAVING "  STREAM LEAKAGE" ON UNIT  52 AT TIME STEP  1, STRESS PERIOD  10



 UBUDSV SAVING "           GW ET" ON UNIT 52 AT TIME STEP  1, STRESS PERIOD   10
 UBUDSV SAVING "    UZF RECHARGE" ON UNIT 52 AT TIME STEP  1, STRESS PERIOD   10
 UBUDSV SAVING " SURFACE LEAKAGE" ON UNIT 52 AT TIME STEP  1, STRESS PERIOD   10
 UBUDSV SAVING "       HORT+DUNN" ON UNIT 52 AT TIME STEP  1, STRESS PERIOD   10
 UBUDSV SAVING "  STORAGE CHANGE" ON UNIT 52 AT TIME STEP  1, STRESS PERIOD   10
 UBDSV4 SAVING "           AG WE" ON UNIT  52 AT TIME STEP  1, STRESS PERIOD  10

 HEAD WILL BE SAVED ON UNIT   51 AT END OF TIME STEP    1, STRESS PERIOD   10
 
 SOLVING FOR HEAD 

    ------------------------------------------------
       NWT REQUIRED            1 OUTER ITERATIONS 
       AND A TOTAL OF          2 INNER ITERATIONS.
    ------------------------------------------------

 OUTPUT CONTROL FOR STRESS PERIOD   10   TIME STEP    2
    SAVE HEAD FOR ALL LAYERS
    SAVE BUDGET
 UBDSV1 SAVING "         STORAGE" ON UNIT  52 AT TIME STEP  2, STRESS PERIOD  10
 UBDSV2 SAVING "   CONSTANT HEAD" ON UNIT  52 AT TIME STEP  2, STRESS PERIOD  10
 UBDSV1 SAVING "FLOW RIGHT FACE " ON UNIT  52 AT TIME STEP  2, STRESS PERIOD  10
 UBDSV1 SAVING "FLOW FRONT FACE " ON UNIT  52 AT TIME STEP  2, STRESS PERIOD  10
 UBDSV4 SAVING "  STREAM LEAKAGE" ON UNIT  52 AT TIME STEP  2, STRESS PERIOD  10



 UBUDSV SAVING "           GW ET" ON UNIT 52 AT TIME STEP  2, STRESS PERIOD   10
 UBUDSV SAVING "    UZF RECHARGE" ON UNIT 52 AT TIME STEP  2, STRESS PERIOD   10
 UBUDSV SAVING " SURFACE LEAKAGE" ON UNIT 52 AT TIME STEP  2, STRESS PERIOD   10
 UBUDSV SAVING "       HORT+DUNN" ON UNIT 52 AT TIME STEP  2, STRESS PERIOD   10
 UBUDSV SAVING "  STORAGE CHANGE" ON UNIT 52 AT TIME STEP  2, STRESS PERIOD   10
 UBDSV4 SAVING "           AG WE" ON UNIT  52 AT TIME STEP  2, STRESS PERIOD  10

 HEAD WILL BE SAVED ON UNIT   51 AT END OF TIME STEP    2, STRESS PERIOD   10
 
 SOLVING FOR HEAD 

    ------------------------------------------------
       NWT REQUIRED            1 OUTER ITERATIONS 
       AND A TOTAL OF          2 INNER ITERATIONS.
    ------------------------------------------------

 OUTPUT CONTROL FOR STRESS PERIOD   10   TIME STEP    3
    SAVE HEAD FOR ALL LAYERS
    SAVE BUDGET
 UBDSV1 SAVING "         STORAGE" ON UNIT  52 AT TIME STEP  3, STRESS PERIOD  10
 UBDSV2 SAVING "   CONSTANT HEAD" ON UNIT  52 AT TIME STEP  3, STRESS PERIOD  10
 UBDSV1 SAVING "FLOW RIGHT FACE " ON UNIT  52 AT TIME STEP  3, STRESS PERIOD  10
 UBDSV1 SAVING "FLOW FRONT FACE " ON UNIT  52 AT TIME STEP  3, STRESS PERIOD  10
 UBDSV4 SAVING "  STREAM LEAKAGE" ON UNIT  52 AT TIME STEP  3, STRESS PERIOD  10



 UBUDSV SAVING "           GW ET" ON UNIT 52 AT TIME STEP  3, STRESS PERIOD   10
 UBUDSV SAVING "    UZF RECHARGE" ON UNIT 52 AT TIME STEP  3, STRESS PERIOD   10
 UBUDSV SAVING " SURFACE LEAKAGE" ON UNIT 52 AT TIME STEP  3, STRESS PERIOD   10
 UBUDSV SAVING "       HORT+DUNN" ON UNIT 52 AT TIME STEP  3, STRESS PERIOD   10
 UBUDSV SAVING "  STORAGE CHANGE" ON UNIT 52 AT TIME STEP  3, STRESS PERIOD   10
 UBDSV4 SAVING "           AG WE" ON UNIT  52 AT TIME STEP  3, STRESS PERIOD  10

 HEAD WILL BE SAVED ON UNIT   51 AT END OF TIME STEP    3, STRESS PERIOD   10
 
 SOLVING FOR HEAD 

    ------------------------------------------------
       NWT REQUIRED            1 OUTER ITERATIONS 
       AND A TOTAL OF          2 INNER ITERATIONS.
    ------------------------------------------------

 OUTPUT CONTROL FOR STRESS PERIOD   10   TIME STEP    4
    SAVE HEAD FOR ALL LAYERS
    SAVE BUDGET
 UBDSV1 SAVING "         STORAGE" ON UNIT  52 AT TIME STEP  4, STRESS PERIOD  10
 UBDSV2 SAVING "   CONSTANT HEAD" ON UNIT  52 AT TIME STEP  4, STRESS PERIOD  10
 UBDSV1 SAVING "FLOW RIGHT FACE " ON UNIT  52 AT TIME STEP  4, STRESS PERIOD  10
 UBDSV1 SAVING "FLOW FRONT FACE " ON UNIT  52 AT TIME STEP  4, STRESS PERIOD  10
 UBDSV4 SAVING "  STREAM LEAKAGE" ON UNIT  52 AT TIME STEP  4, STRESS PERIOD  10



 UBUDSV SAVING "           GW ET" ON UNIT 52 AT TIME STEP  4, STRESS PERIOD   10
 UBUDSV SAVING "    UZF RECHARGE" ON UNIT 52 AT TIME STEP  4, STRESS PERIOD   10
 UBUDSV SAVING " SURFACE LEAKAGE" ON UNIT 52 AT TIME STEP  4, STRESS PERIOD   10
 UBUDSV SAVING "       HORT+DUNN" ON UNIT 52 AT TIME STEP  4, STRESS PERIOD   10
 UBUDSV SAVING "  STORAGE CHANGE" ON UNIT 52 AT TIME STEP  4, STRESS PERIOD   10
 UBDSV4 SAVING "           AG WE" ON UNIT  52 AT TIME STEP  4, STRESS PERIOD  10

 HEAD WILL BE SAVED ON UNIT   51 AT END OF TIME STEP    4, STRESS PERIOD   10
 
 SOLVING FOR HEAD 

    ------------------------------------------------
       NWT REQUIRED            1 OUTER ITERATIONS 
       AND A TOTAL OF          2 INNER ITERATIONS.
    ------------------------------------------------

 OUTPUT CONTROL FOR STRESS PERIOD   10   TIME STEP    5
    SAVE HEAD FOR ALL LAYERS
    SAVE BUDGET
 UBDSV1 SAVING "         STORAGE" ON UNIT  52 AT TIME STEP  5, STRESS PERIOD  10
 UBDSV2 SAVING "   CONSTANT HEAD" ON UNIT  52 AT TIME STEP  5, STRESS PERIOD  10
 UBDSV1 SAVING "FLOW RIGHT FACE " ON UNIT  52 AT TIME STEP  5, STRESS PERIOD  10
 UBDSV1 SAVING "FLOW FRONT FACE " ON UNIT  52 AT TIME STEP  5, STRESS PERIOD  10
 UBDSV4 SAVING "  STREAM LEAKAGE" ON UNIT  52 AT TIME STEP  5, STRESS PERIOD  10



 UBUDSV SAVING "           GW ET" ON UNIT 52 AT TIME STEP  5, STRESS PERIOD   10
 UBUDSV SAVING "    UZF RECHARGE" ON UNIT 52 AT TIME STEP  5, STRESS PERIOD   10
 UBUDSV SAVING " SURFACE LEAKAGE" ON UNIT 52 AT TIME STEP  5, STRESS PERIOD   10
 UBUDSV SAVING "       HORT+DUNN" ON UNIT 52 AT TIME STEP  5, STRESS PERIOD   10
 UBUDSV SAVING "  STORAGE CHANGE" ON UNIT 52 AT TIME STEP  5, STRESS PERIOD   10
 UBDSV4 SAVING "           AG WE" ON UNIT  52 AT TIME STEP  5, STRESS PERIOD  10

 HEAD WILL BE SAVED ON UNIT   51 AT END OF TIME STEP    5, STRESS PERIOD   10
 
 SOLVING FOR HEAD 

    ------------------------------------------------
       NWT REQUIRED            1 OUTER ITERATIONS 
       AND A TOTAL OF          2 INNER ITERATIONS.
    ------------------------------------------------

 OUTPUT CONTROL FOR STRESS PERIOD   10   TIME STEP    6
    SAVE HEAD FOR ALL LAYERS
    SAVE BUDGET
 UBDSV1 SAVING "         STORAGE" ON UNIT  52 AT TIME STEP  6, STRESS PERIOD  10
 UBDSV2 SAVING "   CONSTANT HEAD" ON UNIT  52 AT TIME STEP  6, STRESS PERIOD  10
 UBDSV1 SAVING "FLOW RIGHT FACE " ON UNIT  52 AT TIME STEP  6, STRESS PERIOD  10
 UBDSV1 SAVING "FLOW FRONT FACE " ON UNIT  52 AT TIME STEP  6, STRESS PERIOD  10
 UBDSV4 SAVING "  STREAM LEAKAGE" ON UNIT  52 AT TIME STEP  6, STRESS PERIOD  10



 UBUDSV SAVING "           GW ET" ON UNIT 52 AT TIME STEP  6, STRESS PERIOD   10
 UBUDSV SAVING "    UZF RECHARGE" ON UNIT 52 AT TIME STEP  6, STRESS PERIOD   10
 UBUDSV SAVING " SURFACE LEAKAGE" ON UNIT 52 AT TIME STEP  6, STRESS PERIOD   10
 UBUDSV SAVING "       HORT+DUNN" ON UNIT 52 AT TIME STEP  6, STRESS PERIOD   10
 UBUDSV SAVING "  STORAGE CHANGE" ON UNIT 52 AT TIME STEP  6, STRESS PERIOD   10
 UBDSV4 SAVING "           AG WE" ON UNIT  52 AT TIME STEP  6, STRESS PERIOD  10

 HEAD WILL BE SAVED ON UNIT   51 AT END OF TIME STEP    6, STRESS PERIOD   10
 
 SOLVING FOR HEAD 

    ------------------------------------------------
       NWT REQUIRED            1 OUTER ITERATIONS 
       AND A TOTAL OF          2 INNER ITERATIONS.
    ------------------------------------------------

 OUTPUT CONTROL FOR STRESS PERIOD   10   TIME STEP    7
    SAVE HEAD FOR ALL LAYERS
    SAVE BUDGET
 UBDSV1 SAVING "         STORAGE" ON UNIT  52 AT TIME STEP  7, STRESS PERIOD  10
 UBDSV2 SAVING "   CONSTANT HEAD" ON UNIT  52 AT TIME STEP  7, STRESS PERIOD  10
 UBDSV1 SAVING "FLOW RIGHT FACE " ON UNIT  52 AT TIME STEP  7, STRESS PERIOD  10
 UBDSV1 SAVING "FLOW FRONT FACE " ON UNIT  52 AT TIME STEP  7, STRESS PERIOD  10
 UBDSV4 SAVING "  STREAM LEAKAGE" ON UNIT  52 AT TIME STEP  7, STRESS PERIOD  10



 UBUDSV SAVING "           GW ET" ON UNIT 52 AT TIME STEP  7, STRESS PERIOD   10
 UBUDSV SAVING "    UZF RECHARGE" ON UNIT 52 AT TIME STEP  7, STRESS PERIOD   10
 UBUDSV SAVING " SURFACE LEAKAGE" ON UNIT 52 AT TIME STEP  7, STRESS PERIOD   10
 UBUDSV SAVING "       HORT+DUNN" ON UNIT 52 AT TIME STEP  7, STRESS PERIOD   10
 UBUDSV SAVING "  STORAGE CHANGE" ON UNIT 52 AT TIME STEP  7, STRESS PERIOD   10
 UBDSV4 SAVING "           AG WE" ON UNIT  52 AT TIME STEP  7, STRESS PERIOD  10

 HEAD WILL BE SAVED ON UNIT   51 AT END OF TIME STEP    7, STRESS PERIOD   10
 
 SOLVING FOR HEAD 

    ------------------------------------------------
       NWT REQUIRED            1 OUTER ITERATIONS 
       AND A TOTAL OF          2 INNER ITERATIONS.
    ------------------------------------------------

 OUTPUT CONTROL FOR STRESS PERIOD   10   TIME STEP    8
    SAVE HEAD FOR ALL LAYERS
    SAVE BUDGET
 UBDSV1 SAVING "         STORAGE" ON UNIT  52 AT TIME STEP  8, STRESS PERIOD  10
 UBDSV2 SAVING "   CONSTANT HEAD" ON UNIT  52 AT TIME STEP  8, STRESS PERIOD  10
 UBDSV1 SAVING "FLOW RIGHT FACE " ON UNIT  52 AT TIME STEP  8, STRESS PERIOD  10
 UBDSV1 SAVING "FLOW FRONT FACE " ON UNIT  52 AT TIME STEP  8, STRESS PERIOD  10
 UBDSV4 SAVING "  STREAM LEAKAGE" ON UNIT  52 AT TIME STEP  8, STRESS PERIOD  10



 UBUDSV SAVING "           GW ET" ON UNIT 52 AT TIME STEP  8, STRESS PERIOD   10
 UBUDSV SAVING "    UZF RECHARGE" ON UNIT 52 AT TIME STEP  8, STRESS PERIOD   10
 UBUDSV SAVING " SURFACE LEAKAGE" ON UNIT 52 AT TIME STEP  8, STRESS PERIOD   10
 UBUDSV SAVING "       HORT+DUNN" ON UNIT 52 AT TIME STEP  8, STRESS PERIOD   10
 UBUDSV SAVING "  STORAGE CHANGE" ON UNIT 52 AT TIME STEP  8, STRESS PERIOD   10
 UBDSV4 SAVING "           AG WE" ON UNIT  52 AT TIME STEP  8, STRESS PERIOD  10

 HEAD WILL BE SAVED ON UNIT   51 AT END OF TIME STEP    8, STRESS PERIOD   10
 
 SOLVING FOR HEAD 

    ------------------------------------------------
       NWT REQUIRED            1 OUTER ITERATIONS 
       AND A TOTAL OF          2 INNER ITERATIONS.
    ------------------------------------------------

 OUTPUT CONTROL FOR STRESS PERIOD   10   TIME STEP    9
    SAVE HEAD FOR ALL LAYERS
    SAVE BUDGET
 UBDSV1 SAVING "         STORAGE" ON UNIT  52 AT TIME STEP  9, STRESS PERIOD  10
 UBDSV2 SAVING "   CONSTANT HEAD" ON UNIT  52 AT TIME STEP  9, STRESS PERIOD  10
 UBDSV1 SAVING "FLOW RIGHT FACE " ON UNIT  52 AT TIME STEP  9, STRESS PERIOD  10
 UBDSV1 SAVING "FLOW FRONT FACE " ON UNIT  52 AT TIME STEP  9, STRESS PERIOD  10
 UBDSV4 SAVING "  STREAM LEAKAGE" ON UNIT  52 AT TIME STEP  9, STRESS PERIOD  10



 UBUDSV SAVING "           GW ET" ON UNIT 52 AT TIME STEP  9, STRESS PERIOD   10
 UBUDSV SAVING "    UZF RECHARGE" ON UNIT 52 AT TIME STEP  9, STRESS PERIOD   10
 UBUDSV SAVING " SURFACE LEAKAGE" ON UNIT 52 AT TIME STEP  9, STRESS PERIOD   10
 UBUDSV SAVING "       HORT+DUNN" ON UNIT 52 AT TIME STEP  9, STRESS PERIOD   10
 UBUDSV SAVING "  STORAGE CHANGE" ON UNIT 52 AT TIME STEP  9, STRESS PERIOD   10
 UBDSV4 SAVING "           AG WE" ON UNIT  52 AT TIME STEP  9, STRESS PERIOD  10

 HEAD WILL BE SAVED ON UNIT   51 AT END OF TIME STEP    9, STRESS PERIOD   10
 
 SOLVING FOR HEAD 

    ------------------------------------------------
       NWT REQUIRED            1 OUTER ITERATIONS 
       AND A TOTAL OF          2 INNER ITERATIONS.
    ------------------------------------------------

 OUTPUT CONTROL FOR STRESS PERIOD   10   TIME STEP   10
    SAVE HEAD FOR ALL LAYERS
    SAVE BUDGET
 UBDSV1 SAVING "         STORAGE" ON UNIT  52 AT TIME STEP 10, STRESS PERIOD  10
 UBDSV2 SAVING "   CONSTANT HEAD" ON UNIT  52 AT TIME STEP 10, STRESS PERIOD  10
 UBDSV1 SAVING "FLOW RIGHT FACE " ON UNIT  52 AT TIME STEP 10, STRESS PERIOD  10
 UBDSV1 SAVING "FLOW FRONT FACE " ON UNIT  52 AT TIME STEP 10, STRESS PERIOD  10
 UBDSV4 SAVING "  STREAM LEAKAGE" ON UNIT  52 AT TIME STEP 10, STRESS PERIOD  10



 UBUDSV SAVING "           GW ET" ON UNIT 52 AT TIME STEP 10, STRESS PERIOD   10
 UBUDSV SAVING "    UZF RECHARGE" ON UNIT 52 AT TIME STEP 10, STRESS PERIOD   10
 UBUDSV SAVING " SURFACE LEAKAGE" ON UNIT 52 AT TIME STEP 10, STRESS PERIOD   10
 UBUDSV SAVING "       HORT+DUNN" ON UNIT 52 AT TIME STEP 10, STRESS PERIOD   10
 UBUDSV SAVING "  STORAGE CHANGE" ON UNIT 52 AT TIME STEP 10, STRESS PERIOD   10
 UBDSV4 SAVING "           AG WE" ON UNIT  52 AT TIME STEP 10, STRESS PERIOD  10

 HEAD WILL BE SAVED ON UNIT   51 AT END OF TIME STEP   10, STRESS PERIOD   10
 
 SOLVING FOR HEAD 

    ------------------------------------------------
       NWT REQUIRED            1 OUTER ITERATIONS 
       AND A TOTAL OF          2 INNER ITERATIONS.
    ------------------------------------------------

 OUTPUT CONTROL FOR STRESS PERIOD   10   TIME STEP   11
    SAVE HEAD FOR ALL LAYERS
    SAVE BUDGET
 UBDSV1 SAVING "         STORAGE" ON UNIT  52 AT TIME STEP 11, STRESS PERIOD  10
 UBDSV2 SAVING "   CONSTANT HEAD" ON UNIT  52 AT TIME STEP 11, STRESS PERIOD  10
 UBDSV1 SAVING "FLOW RIGHT FACE " ON UNIT  52 AT TIME STEP 11, STRESS PERIOD  10
 UBDSV1 SAVING "FLOW FRONT FACE " ON UNIT  52 AT TIME STEP 11, STRESS PERIOD  10
 UBDSV4 SAVING "  STREAM LEAKAGE" ON UNIT  52 AT TIME STEP 11, STRESS PERIOD  10



 UBUDSV SAVING "           GW ET" ON UNIT 52 AT TIME STEP 11, STRESS PERIOD   10
 UBUDSV SAVING "    UZF RECHARGE" ON UNIT 52 AT TIME STEP 11, STRESS PERIOD   10
 UBUDSV SAVING " SURFACE LEAKAGE" ON UNIT 52 AT TIME STEP 11, STRESS PERIOD   10
 UBUDSV SAVING "       HORT+DUNN" ON UNIT 52 AT TIME STEP 11, STRESS PERIOD   10
 UBUDSV SAVING "  STORAGE CHANGE" ON UNIT 52 AT TIME STEP 11, STRESS PERIOD   10
 UBDSV4 SAVING "           AG WE" ON UNIT  52 AT TIME STEP 11, STRESS PERIOD  10

 HEAD WILL BE SAVED ON UNIT   51 AT END OF TIME STEP   11, STRESS PERIOD   10
 
 SOLVING FOR HEAD 

    ------------------------------------------------
       NWT REQUIRED            1 OUTER ITERATIONS 
       AND A TOTAL OF          2 INNER ITERATIONS.
    ------------------------------------------------

 OUTPUT CONTROL FOR STRESS PERIOD   10   TIME STEP   12
    SAVE HEAD FOR ALL LAYERS
    SAVE BUDGET
 UBDSV1 SAVING "         STORAGE" ON UNIT  52 AT TIME STEP 12, STRESS PERIOD  10
 UBDSV2 SAVING "   CONSTANT HEAD" ON UNIT  52 AT TIME STEP 12, STRESS PERIOD  10
 UBDSV1 SAVING "FLOW RIGHT FACE " ON UNIT  52 AT TIME STEP 12, STRESS PERIOD  10
 UBDSV1 SAVING "FLOW FRONT FACE " ON UNIT  52 AT TIME STEP 12, STRESS PERIOD  10
 UBDSV4 SAVING "  STREAM LEAKAGE" ON UNIT  52 AT TIME STEP 12, STRESS PERIOD  10



 UBUDSV SAVING "           GW ET" ON UNIT 52 AT TIME STEP 12, STRESS PERIOD   10
 UBUDSV SAVING "    UZF RECHARGE" ON UNIT 52 AT TIME STEP 12, STRESS PERIOD   10
 UBUDSV SAVING " SURFACE LEAKAGE" ON UNIT 52 AT TIME STEP 12, STRESS PERIOD   10
 UBUDSV SAVING "       HORT+DUNN" ON UNIT 52 AT TIME STEP 12, STRESS PERIOD   10
 UBUDSV SAVING "  STORAGE CHANGE" ON UNIT 52 AT TIME STEP 12, STRESS PERIOD   10
 UBDSV4 SAVING "           AG WE" ON UNIT  52 AT TIME STEP 12, STRESS PERIOD  10

 HEAD WILL BE SAVED ON UNIT   51 AT END OF TIME STEP   12, STRESS PERIOD   10
 
 SOLVING FOR HEAD 

    ------------------------------------------------
       NWT REQUIRED            1 OUTER ITERATIONS 
       AND A TOTAL OF          2 INNER ITERATIONS.
    ------------------------------------------------

 OUTPUT CONTROL FOR STRESS PERIOD   10   TIME STEP   13
    SAVE HEAD FOR ALL LAYERS
    SAVE BUDGET
 UBDSV1 SAVING "         STORAGE" ON UNIT  52 AT TIME STEP 13, STRESS PERIOD  10
 UBDSV2 SAVING "   CONSTANT HEAD" ON UNIT  52 AT TIME STEP 13, STRESS PERIOD  10
 UBDSV1 SAVING "FLOW RIGHT FACE " ON UNIT  52 AT TIME STEP 13, STRESS PERIOD  10
 UBDSV1 SAVING "FLOW FRONT FACE " ON UNIT  52 AT TIME STEP 13, STRESS PERIOD  10
 UBDSV4 SAVING "  STREAM LEAKAGE" ON UNIT  52 AT TIME STEP 13, STRESS PERIOD  10



 UBUDSV SAVING "           GW ET" ON UNIT 52 AT TIME STEP 13, STRESS PERIOD   10
 UBUDSV SAVING "    UZF RECHARGE" ON UNIT 52 AT TIME STEP 13, STRESS PERIOD   10
 UBUDSV SAVING " SURFACE LEAKAGE" ON UNIT 52 AT TIME STEP 13, STRESS PERIOD   10
 UBUDSV SAVING "       HORT+DUNN" ON UNIT 52 AT TIME STEP 13, STRESS PERIOD   10
 UBUDSV SAVING "  STORAGE CHANGE" ON UNIT 52 AT TIME STEP 13, STRESS PERIOD   10
 UBDSV4 SAVING "           AG WE" ON UNIT  52 AT TIME STEP 13, STRESS PERIOD  10

 HEAD WILL BE SAVED ON UNIT   51 AT END OF TIME STEP   13, STRESS PERIOD   10
 
 SOLVING FOR HEAD 

    ------------------------------------------------
       NWT REQUIRED            1 OUTER ITERATIONS 
       AND A TOTAL OF          2 INNER ITERATIONS.
    ------------------------------------------------

 OUTPUT CONTROL FOR STRESS PERIOD   10   TIME STEP   14
    SAVE HEAD FOR ALL LAYERS
    SAVE BUDGET
 UBDSV1 SAVING "         STORAGE" ON UNIT  52 AT TIME STEP 14, STRESS PERIOD  10
 UBDSV2 SAVING "   CONSTANT HEAD" ON UNIT  52 AT TIME STEP 14, STRESS PERIOD  10
 UBDSV1 SAVING "FLOW RIGHT FACE " ON UNIT  52 AT TIME STEP 14, STRESS PERIOD  10
 UBDSV1 SAVING "FLOW FRONT FACE " ON UNIT  52 AT TIME STEP 14, STRESS PERIOD  10
 UBDSV4 SAVING "  STREAM LEAKAGE" ON UNIT  52 AT TIME STEP 14, STRESS PERIOD  10



 UBUDSV SAVING "           GW ET" ON UNIT 52 AT TIME STEP 14, STRESS PERIOD   10
 UBUDSV SAVING "    UZF RECHARGE" ON UNIT 52 AT TIME STEP 14, STRESS PERIOD   10
 UBUDSV SAVING " SURFACE LEAKAGE" ON UNIT 52 AT TIME STEP 14, STRESS PERIOD   10
 UBUDSV SAVING "       HORT+DUNN" ON UNIT 52 AT TIME STEP 14, STRESS PERIOD   10
 UBUDSV SAVING "  STORAGE CHANGE" ON UNIT 52 AT TIME STEP 14, STRESS PERIOD   10
 UBDSV4 SAVING "           AG WE" ON UNIT  52 AT TIME STEP 14, STRESS PERIOD  10

 HEAD WILL BE SAVED ON UNIT   51 AT END OF TIME STEP   14, STRESS PERIOD   10
 
 SOLVING FOR HEAD 

    ------------------------------------------------
       NWT REQUIRED            1 OUTER ITERATIONS 
       AND A TOTAL OF          2 INNER ITERATIONS.
    ------------------------------------------------

 OUTPUT CONTROL FOR STRESS PERIOD   10   TIME STEP   15
    SAVE HEAD FOR ALL LAYERS
    SAVE BUDGET
 UBDSV1 SAVING "         STORAGE" ON UNIT  52 AT TIME STEP 15, STRESS PERIOD  10
 UBDSV2 SAVING "   CONSTANT HEAD" ON UNIT  52 AT TIME STEP 15, STRESS PERIOD  10
 UBDSV1 SAVING "FLOW RIGHT FACE " ON UNIT  52 AT TIME STEP 15, STRESS PERIOD  10
 UBDSV1 SAVING "FLOW FRONT FACE " ON UNIT  52 AT TIME STEP 15, STRESS PERIOD  10
 UBDSV4 SAVING "  STREAM LEAKAGE" ON UNIT  52 AT TIME STEP 15, STRESS PERIOD  10



 UBUDSV SAVING "           GW ET" ON UNIT 52 AT TIME STEP 15, STRESS PERIOD   10
 UBUDSV SAVING "    UZF RECHARGE" ON UNIT 52 AT TIME STEP 15, STRESS PERIOD   10
 UBUDSV SAVING " SURFACE LEAKAGE" ON UNIT 52 AT TIME STEP 15, STRESS PERIOD   10
 UBUDSV SAVING "       HORT+DUNN" ON UNIT 52 AT TIME STEP 15, STRESS PERIOD   10
 UBUDSV SAVING "  STORAGE CHANGE" ON UNIT 52 AT TIME STEP 15, STRESS PERIOD   10
 UBDSV4 SAVING "           AG WE" ON UNIT  52 AT TIME STEP 15, STRESS PERIOD  10

 HEAD WILL BE SAVED ON UNIT   51 AT END OF TIME STEP   15, STRESS PERIOD   10
 
 SOLVING FOR HEAD 

    ------------------------------------------------
       NWT REQUIRED            1 OUTER ITERATIONS 
       AND A TOTAL OF          2 INNER ITERATIONS.
    ------------------------------------------------

 OUTPUT CONTROL FOR STRESS PERIOD   10   TIME STEP   16
    SAVE HEAD FOR ALL LAYERS
    SAVE BUDGET
 UBDSV1 SAVING "         STORAGE" ON UNIT  52 AT TIME STEP 16, STRESS PERIOD  10
 UBDSV2 SAVING "   CONSTANT HEAD" ON UNIT  52 AT TIME STEP 16, STRESS PERIOD  10
 UBDSV1 SAVING "FLOW RIGHT FACE " ON UNIT  52 AT TIME STEP 16, STRESS PERIOD  10
 UBDSV1 SAVING "FLOW FRONT FACE " ON UNIT  52 AT TIME STEP 16, STRESS PERIOD  10
 UBDSV4 SAVING "  STREAM LEAKAGE" ON UNIT  52 AT TIME STEP 16, STRESS PERIOD  10



 UBUDSV SAVING "           GW ET" ON UNIT 52 AT TIME STEP 16, STRESS PERIOD   10
 UBUDSV SAVING "    UZF RECHARGE" ON UNIT 52 AT TIME STEP 16, STRESS PERIOD   10
 UBUDSV SAVING " SURFACE LEAKAGE" ON UNIT 52 AT TIME STEP 16, STRESS PERIOD   10
 UBUDSV SAVING "       HORT+DUNN" ON UNIT 52 AT TIME STEP 16, STRESS PERIOD   10
 UBUDSV SAVING "  STORAGE CHANGE" ON UNIT 52 AT TIME STEP 16, STRESS PERIOD   10
 UBDSV4 SAVING "           AG WE" ON UNIT  52 AT TIME STEP 16, STRESS PERIOD  10

 HEAD WILL BE SAVED ON UNIT   51 AT END OF TIME STEP   16, STRESS PERIOD   10
 
 SOLVING FOR HEAD 

    ------------------------------------------------
       NWT REQUIRED            1 OUTER ITERATIONS 
       AND A TOTAL OF          2 INNER ITERATIONS.
    ------------------------------------------------

 OUTPUT CONTROL FOR STRESS PERIOD   10   TIME STEP   17
    SAVE HEAD FOR ALL LAYERS
    SAVE BUDGET
 UBDSV1 SAVING "         STORAGE" ON UNIT  52 AT TIME STEP 17, STRESS PERIOD  10
 UBDSV2 SAVING "   CONSTANT HEAD" ON UNIT  52 AT TIME STEP 17, STRESS PERIOD  10
 UBDSV1 SAVING "FLOW RIGHT FACE " ON UNIT  52 AT TIME STEP 17, STRESS PERIOD  10
 UBDSV1 SAVING "FLOW FRONT FACE " ON UNIT  52 AT TIME STEP 17, STRESS PERIOD  10
 UBDSV4 SAVING "  STREAM LEAKAGE" ON UNIT  52 AT TIME STEP 17, STRESS PERIOD  10



 UBUDSV SAVING "           GW ET" ON UNIT 52 AT TIME STEP 17, STRESS PERIOD   10
 UBUDSV SAVING "    UZF RECHARGE" ON UNIT 52 AT TIME STEP 17, STRESS PERIOD   10
 UBUDSV SAVING " SURFACE LEAKAGE" ON UNIT 52 AT TIME STEP 17, STRESS PERIOD   10
 UBUDSV SAVING "       HORT+DUNN" ON UNIT 52 AT TIME STEP 17, STRESS PERIOD   10
 UBUDSV SAVING "  STORAGE CHANGE" ON UNIT 52 AT TIME STEP 17, STRESS PERIOD   10
 UBDSV4 SAVING "           AG WE" ON UNIT  52 AT TIME STEP 17, STRESS PERIOD  10

 HEAD WILL BE SAVED ON UNIT   51 AT END OF TIME STEP   17, STRESS PERIOD   10
 
 SOLVING FOR HEAD 

    ------------------------------------------------
       NWT REQUIRED            1 OUTER ITERATIONS 
       AND A TOTAL OF          2 INNER ITERATIONS.
    ------------------------------------------------

 OUTPUT CONTROL FOR STRESS PERIOD   10   TIME STEP   18
    SAVE HEAD FOR ALL LAYERS
    SAVE BUDGET
 UBDSV1 SAVING "         STORAGE" ON UNIT  52 AT TIME STEP 18, STRESS PERIOD  10
 UBDSV2 SAVING "   CONSTANT HEAD" ON UNIT  52 AT TIME STEP 18, STRESS PERIOD  10
 UBDSV1 SAVING "FLOW RIGHT FACE " ON UNIT  52 AT TIME STEP 18, STRESS PERIOD  10
 UBDSV1 SAVING "FLOW FRONT FACE " ON UNIT  52 AT TIME STEP 18, STRESS PERIOD  10
 UBDSV4 SAVING "  STREAM LEAKAGE" ON UNIT  52 AT TIME STEP 18, STRESS PERIOD  10



 UBUDSV SAVING "           GW ET" ON UNIT 52 AT TIME STEP 18, STRESS PERIOD   10
 UBUDSV SAVING "    UZF RECHARGE" ON UNIT 52 AT TIME STEP 18, STRESS PERIOD   10
 UBUDSV SAVING " SURFACE LEAKAGE" ON UNIT 52 AT TIME STEP 18, STRESS PERIOD   10
 UBUDSV SAVING "       HORT+DUNN" ON UNIT 52 AT TIME STEP 18, STRESS PERIOD   10
 UBUDSV SAVING "  STORAGE CHANGE" ON UNIT 52 AT TIME STEP 18, STRESS PERIOD   10
 UBDSV4 SAVING "           AG WE" ON UNIT  52 AT TIME STEP 18, STRESS PERIOD  10

 HEAD WILL BE SAVED ON UNIT   51 AT END OF TIME STEP   18, STRESS PERIOD   10
 
 SOLVING FOR HEAD 

    ------------------------------------------------
       NWT REQUIRED            1 OUTER ITERATIONS 
       AND A TOTAL OF          2 INNER ITERATIONS.
    ------------------------------------------------

 OUTPUT CONTROL FOR STRESS PERIOD   10   TIME STEP   19
    SAVE HEAD FOR ALL LAYERS
    SAVE BUDGET
 UBDSV1 SAVING "         STORAGE" ON UNIT  52 AT TIME STEP 19, STRESS PERIOD  10
 UBDSV2 SAVING "   CONSTANT HEAD" ON UNIT  52 AT TIME STEP 19, STRESS PERIOD  10
 UBDSV1 SAVING "FLOW RIGHT FACE " ON UNIT  52 AT TIME STEP 19, STRESS PERIOD  10
 UBDSV1 SAVING "FLOW FRONT FACE " ON UNIT  52 AT TIME STEP 19, STRESS PERIOD  10
 UBDSV4 SAVING "  STREAM LEAKAGE" ON UNIT  52 AT TIME STEP 19, STRESS PERIOD  10



 UBUDSV SAVING "           GW ET" ON UNIT 52 AT TIME STEP 19, STRESS PERIOD   10
 UBUDSV SAVING "    UZF RECHARGE" ON UNIT 52 AT TIME STEP 19, STRESS PERIOD   10
 UBUDSV SAVING " SURFACE LEAKAGE" ON UNIT 52 AT TIME STEP 19, STRESS PERIOD   10
 UBUDSV SAVING "       HORT+DUNN" ON UNIT 52 AT TIME STEP 19, STRESS PERIOD   10
 UBUDSV SAVING "  STORAGE CHANGE" ON UNIT 52 AT TIME STEP 19, STRESS PERIOD   10
 UBDSV4 SAVING "           AG WE" ON UNIT  52 AT TIME STEP 19, STRESS PERIOD  10

 HEAD WILL BE SAVED ON UNIT   51 AT END OF TIME STEP   19, STRESS PERIOD   10
 
 SOLVING FOR HEAD 

    ------------------------------------------------
       NWT REQUIRED            1 OUTER ITERATIONS 
       AND A TOTAL OF          2 INNER ITERATIONS.
    ------------------------------------------------

 OUTPUT CONTROL FOR STRESS PERIOD   10   TIME STEP   20
    SAVE HEAD FOR ALL LAYERS
    SAVE BUDGET
 UBDSV1 SAVING "         STORAGE" ON UNIT  52 AT TIME STEP 20, STRESS PERIOD  10
 UBDSV2 SAVING "   CONSTANT HEAD" ON UNIT  52 AT TIME STEP 20, STRESS PERIOD  10
 UBDSV1 SAVING "FLOW RIGHT FACE " ON UNIT  52 AT TIME STEP 20, STRESS PERIOD  10
 UBDSV1 SAVING "FLOW FRONT FACE " ON UNIT  52 AT TIME STEP 20, STRESS PERIOD  10
 UBDSV4 SAVING "  STREAM LEAKAGE" ON UNIT  52 AT TIME STEP 20, STRESS PERIOD  10



 UBUDSV SAVING "           GW ET" ON UNIT 52 AT TIME STEP 20, STRESS PERIOD   10
 UBUDSV SAVING "    UZF RECHARGE" ON UNIT 52 AT TIME STEP 20, STRESS PERIOD   10
 UBUDSV SAVING " SURFACE LEAKAGE" ON UNIT 52 AT TIME STEP 20, STRESS PERIOD   10
 UBUDSV SAVING "       HORT+DUNN" ON UNIT 52 AT TIME STEP 20, STRESS PERIOD   10
 UBUDSV SAVING "  STORAGE CHANGE" ON UNIT 52 AT TIME STEP 20, STRESS PERIOD   10
 UBDSV4 SAVING "           AG WE" ON UNIT  52 AT TIME STEP 20, STRESS PERIOD  10

 HEAD WILL BE SAVED ON UNIT   51 AT END OF TIME STEP   20, STRESS PERIOD   10
 
 SOLVING FOR HEAD 

    ------------------------------------------------
       NWT REQUIRED            1 OUTER ITERATIONS 
       AND A TOTAL OF          2 INNER ITERATIONS.
    ------------------------------------------------

 OUTPUT CONTROL FOR STRESS PERIOD   10   TIME STEP   21
    SAVE HEAD FOR ALL LAYERS
    SAVE BUDGET
 UBDSV1 SAVING "         STORAGE" ON UNIT  52 AT TIME STEP 21, STRESS PERIOD  10
 UBDSV2 SAVING "   CONSTANT HEAD" ON UNIT  52 AT TIME STEP 21, STRESS PERIOD  10
 UBDSV1 SAVING "FLOW RIGHT FACE " ON UNIT  52 AT TIME STEP 21, STRESS PERIOD  10
 UBDSV1 SAVING "FLOW FRONT FACE " ON UNIT  52 AT TIME STEP 21, STRESS PERIOD  10
 UBDSV4 SAVING "  STREAM LEAKAGE" ON UNIT  52 AT TIME STEP 21, STRESS PERIOD  10



 UBUDSV SAVING "           GW ET" ON UNIT 52 AT TIME STEP 21, STRESS PERIOD   10
 UBUDSV SAVING "    UZF RECHARGE" ON UNIT 52 AT TIME STEP 21, STRESS PERIOD   10
 UBUDSV SAVING " SURFACE LEAKAGE" ON UNIT 52 AT TIME STEP 21, STRESS PERIOD   10
 UBUDSV SAVING "       HORT+DUNN" ON UNIT 52 AT TIME STEP 21, STRESS PERIOD   10
 UBUDSV SAVING "  STORAGE CHANGE" ON UNIT 52 AT TIME STEP 21, STRESS PERIOD   10
 UBDSV4 SAVING "           AG WE" ON UNIT  52 AT TIME STEP 21, STRESS PERIOD  10

 HEAD WILL BE SAVED ON UNIT   51 AT END OF TIME STEP   21, STRESS PERIOD   10
 
 SOLVING FOR HEAD 

    ------------------------------------------------
       NWT REQUIRED            1 OUTER ITERATIONS 
       AND A TOTAL OF          2 INNER ITERATIONS.
    ------------------------------------------------

 OUTPUT CONTROL FOR STRESS PERIOD   10   TIME STEP   22
    SAVE HEAD FOR ALL LAYERS
    SAVE BUDGET
 UBDSV1 SAVING "         STORAGE" ON UNIT  52 AT TIME STEP 22, STRESS PERIOD  10
 UBDSV2 SAVING "   CONSTANT HEAD" ON UNIT  52 AT TIME STEP 22, STRESS PERIOD  10
 UBDSV1 SAVING "FLOW RIGHT FACE " ON UNIT  52 AT TIME STEP 22, STRESS PERIOD  10
 UBDSV1 SAVING "FLOW FRONT FACE " ON UNIT  52 AT TIME STEP 22, STRESS PERIOD  10
 UBDSV4 SAVING "  STREAM LEAKAGE" ON UNIT  52 AT TIME STEP 22, STRESS PERIOD  10



 UBUDSV SAVING "           GW ET" ON UNIT 52 AT TIME STEP 22, STRESS PERIOD   10
 UBUDSV SAVING "    UZF RECHARGE" ON UNIT 52 AT TIME STEP 22, STRESS PERIOD   10
 UBUDSV SAVING " SURFACE LEAKAGE" ON UNIT 52 AT TIME STEP 22, STRESS PERIOD   10
 UBUDSV SAVING "       HORT+DUNN" ON UNIT 52 AT TIME STEP 22, STRESS PERIOD   10
 UBUDSV SAVING "  STORAGE CHANGE" ON UNIT 52 AT TIME STEP 22, STRESS PERIOD   10
 UBDSV4 SAVING "           AG WE" ON UNIT  52 AT TIME STEP 22, STRESS PERIOD  10

 HEAD WILL BE SAVED ON UNIT   51 AT END OF TIME STEP   22, STRESS PERIOD   10
 
 SOLVING FOR HEAD 

    ------------------------------------------------
       NWT REQUIRED            1 OUTER ITERATIONS 
       AND A TOTAL OF          2 INNER ITERATIONS.
    ------------------------------------------------

 OUTPUT CONTROL FOR STRESS PERIOD   10   TIME STEP   23
    SAVE HEAD FOR ALL LAYERS
    SAVE BUDGET
 UBDSV1 SAVING "         STORAGE" ON UNIT  52 AT TIME STEP 23, STRESS PERIOD  10
 UBDSV2 SAVING "   CONSTANT HEAD" ON UNIT  52 AT TIME STEP 23, STRESS PERIOD  10
 UBDSV1 SAVING "FLOW RIGHT FACE " ON UNIT  52 AT TIME STEP 23, STRESS PERIOD  10
 UBDSV1 SAVING "FLOW FRONT FACE " ON UNIT  52 AT TIME STEP 23, STRESS PERIOD  10
 UBDSV4 SAVING "  STREAM LEAKAGE" ON UNIT  52 AT TIME STEP 23, STRESS PERIOD  10



 UBUDSV SAVING "           GW ET" ON UNIT 52 AT TIME STEP 23, STRESS PERIOD   10
 UBUDSV SAVING "    UZF RECHARGE" ON UNIT 52 AT TIME STEP 23, STRESS PERIOD   10
 UBUDSV SAVING " SURFACE LEAKAGE" ON UNIT 52 AT TIME STEP 23, STRESS PERIOD   10
 UBUDSV SAVING "       HORT+DUNN" ON UNIT 52 AT TIME STEP 23, STRESS PERIOD   10
 UBUDSV SAVING "  STORAGE CHANGE" ON UNIT 52 AT TIME STEP 23, STRESS PERIOD   10
 UBDSV4 SAVING "           AG WE" ON UNIT  52 AT TIME STEP 23, STRESS PERIOD  10

 HEAD WILL BE SAVED ON UNIT   51 AT END OF TIME STEP   23, STRESS PERIOD   10
 
 SOLVING FOR HEAD 

    ------------------------------------------------
       NWT REQUIRED            1 OUTER ITERATIONS 
       AND A TOTAL OF          2 INNER ITERATIONS.
    ------------------------------------------------

 OUTPUT CONTROL FOR STRESS PERIOD   10   TIME STEP   24
    SAVE HEAD FOR ALL LAYERS
    SAVE BUDGET
 UBDSV1 SAVING "         STORAGE" ON UNIT  52 AT TIME STEP 24, STRESS PERIOD  10
 UBDSV2 SAVING "   CONSTANT HEAD" ON UNIT  52 AT TIME STEP 24, STRESS PERIOD  10
 UBDSV1 SAVING "FLOW RIGHT FACE " ON UNIT  52 AT TIME STEP 24, STRESS PERIOD  10
 UBDSV1 SAVING "FLOW FRONT FACE " ON UNIT  52 AT TIME STEP 24, STRESS PERIOD  10
 UBDSV4 SAVING "  STREAM LEAKAGE" ON UNIT  52 AT TIME STEP 24, STRESS PERIOD  10



 UBUDSV SAVING "           GW ET" ON UNIT 52 AT TIME STEP 24, STRESS PERIOD   10
 UBUDSV SAVING "    UZF RECHARGE" ON UNIT 52 AT TIME STEP 24, STRESS PERIOD   10
 UBUDSV SAVING " SURFACE LEAKAGE" ON UNIT 52 AT TIME STEP 24, STRESS PERIOD   10
 UBUDSV SAVING "       HORT+DUNN" ON UNIT 52 AT TIME STEP 24, STRESS PERIOD   10
 UBUDSV SAVING "  STORAGE CHANGE" ON UNIT 52 AT TIME STEP 24, STRESS PERIOD   10
 UBDSV4 SAVING "           AG WE" ON UNIT  52 AT TIME STEP 24, STRESS PERIOD  10

 HEAD WILL BE SAVED ON UNIT   51 AT END OF TIME STEP   24, STRESS PERIOD   10
 
 SOLVING FOR HEAD 

    ------------------------------------------------
       NWT REQUIRED            1 OUTER ITERATIONS 
       AND A TOTAL OF          2 INNER ITERATIONS.
    ------------------------------------------------

 OUTPUT CONTROL FOR STRESS PERIOD   10   TIME STEP   25
    SAVE HEAD FOR ALL LAYERS
    SAVE BUDGET
 UBDSV1 SAVING "         STORAGE" ON UNIT  52 AT TIME STEP 25, STRESS PERIOD  10
 UBDSV2 SAVING "   CONSTANT HEAD" ON UNIT  52 AT TIME STEP 25, STRESS PERIOD  10
 UBDSV1 SAVING "FLOW RIGHT FACE " ON UNIT  52 AT TIME STEP 25, STRESS PERIOD  10
 UBDSV1 SAVING "FLOW FRONT FACE " ON UNIT  52 AT TIME STEP 25, STRESS PERIOD  10
 UBDSV4 SAVING "  STREAM LEAKAGE" ON UNIT  52 AT TIME STEP 25, STRESS PERIOD  10



 UBUDSV SAVING "           GW ET" ON UNIT 52 AT TIME STEP 25, STRESS PERIOD   10
 UBUDSV SAVING "    UZF RECHARGE" ON UNIT 52 AT TIME STEP 25, STRESS PERIOD   10
 UBUDSV SAVING " SURFACE LEAKAGE" ON UNIT 52 AT TIME STEP 25, STRESS PERIOD   10
 UBUDSV SAVING "       HORT+DUNN" ON UNIT 52 AT TIME STEP 25, STRESS PERIOD   10
 UBUDSV SAVING "  STORAGE CHANGE" ON UNIT 52 AT TIME STEP 25, STRESS PERIOD   10
 UBDSV4 SAVING "           AG WE" ON UNIT  52 AT TIME STEP 25, STRESS PERIOD  10

 HEAD WILL BE SAVED ON UNIT   51 AT END OF TIME STEP   25, STRESS PERIOD   10
 
 SOLVING FOR HEAD 

    ------------------------------------------------
       NWT REQUIRED            1 OUTER ITERATIONS 
       AND A TOTAL OF          2 INNER ITERATIONS.
    ------------------------------------------------

 OUTPUT CONTROL FOR STRESS PERIOD   10   TIME STEP   26
    SAVE HEAD FOR ALL LAYERS
    SAVE BUDGET
 UBDSV1 SAVING "         STORAGE" ON UNIT  52 AT TIME STEP 26, STRESS PERIOD  10
 UBDSV2 SAVING "   CONSTANT HEAD" ON UNIT  52 AT TIME STEP 26, STRESS PERIOD  10
 UBDSV1 SAVING "FLOW RIGHT FACE " ON UNIT  52 AT TIME STEP 26, STRESS PERIOD  10
 UBDSV1 SAVING "FLOW FRONT FACE " ON UNIT  52 AT TIME STEP 26, STRESS PERIOD  10
 UBDSV4 SAVING "  STREAM LEAKAGE" ON UNIT  52 AT TIME STEP 26, STRESS PERIOD  10



 UBUDSV SAVING "           GW ET" ON UNIT 52 AT TIME STEP 26, STRESS PERIOD   10
 UBUDSV SAVING "    UZF RECHARGE" ON UNIT 52 AT TIME STEP 26, STRESS PERIOD   10
 UBUDSV SAVING " SURFACE LEAKAGE" ON UNIT 52 AT TIME STEP 26, STRESS PERIOD   10
 UBUDSV SAVING "       HORT+DUNN" ON UNIT 52 AT TIME STEP 26, STRESS PERIOD   10
 UBUDSV SAVING "  STORAGE CHANGE" ON UNIT 52 AT TIME STEP 26, STRESS PERIOD   10
 UBDSV4 SAVING "           AG WE" ON UNIT  52 AT TIME STEP 26, STRESS PERIOD  10

 HEAD WILL BE SAVED ON UNIT   51 AT END OF TIME STEP   26, STRESS PERIOD   10
 
 SOLVING FOR HEAD 

    ------------------------------------------------
       NWT REQUIRED            1 OUTER ITERATIONS 
       AND A TOTAL OF          2 INNER ITERATIONS.
    ------------------------------------------------

 OUTPUT CONTROL FOR STRESS PERIOD   10   TIME STEP   27
    SAVE HEAD FOR ALL LAYERS
    SAVE BUDGET
 UBDSV1 SAVING "         STORAGE" ON UNIT  52 AT TIME STEP 27, STRESS PERIOD  10
 UBDSV2 SAVING "   CONSTANT HEAD" ON UNIT  52 AT TIME STEP 27, STRESS PERIOD  10
 UBDSV1 SAVING "FLOW RIGHT FACE " ON UNIT  52 AT TIME STEP 27, STRESS PERIOD  10
 UBDSV1 SAVING "FLOW FRONT FACE " ON UNIT  52 AT TIME STEP 27, STRESS PERIOD  10
 UBDSV4 SAVING "  STREAM LEAKAGE" ON UNIT  52 AT TIME STEP 27, STRESS PERIOD  10



 UBUDSV SAVING "           GW ET" ON UNIT 52 AT TIME STEP 27, STRESS PERIOD   10
 UBUDSV SAVING "    UZF RECHARGE" ON UNIT 52 AT TIME STEP 27, STRESS PERIOD   10
 UBUDSV SAVING " SURFACE LEAKAGE" ON UNIT 52 AT TIME STEP 27, STRESS PERIOD   10
 UBUDSV SAVING "       HORT+DUNN" ON UNIT 52 AT TIME STEP 27, STRESS PERIOD   10
 UBUDSV SAVING "  STORAGE CHANGE" ON UNIT 52 AT TIME STEP 27, STRESS PERIOD   10
 UBDSV4 SAVING "           AG WE" ON UNIT  52 AT TIME STEP 27, STRESS PERIOD  10

 HEAD WILL BE SAVED ON UNIT   51 AT END OF TIME STEP   27, STRESS PERIOD   10
 
 SOLVING FOR HEAD 

    ------------------------------------------------
       NWT REQUIRED            1 OUTER ITERATIONS 
       AND A TOTAL OF          2 INNER ITERATIONS.
    ------------------------------------------------

 OUTPUT CONTROL FOR STRESS PERIOD   10   TIME STEP   28
    SAVE HEAD FOR ALL LAYERS
    SAVE BUDGET
 UBDSV1 SAVING "         STORAGE" ON UNIT  52 AT TIME STEP 28, STRESS PERIOD  10
 UBDSV2 SAVING "   CONSTANT HEAD" ON UNIT  52 AT TIME STEP 28, STRESS PERIOD  10
 UBDSV1 SAVING "FLOW RIGHT FACE " ON UNIT  52 AT TIME STEP 28, STRESS PERIOD  10
 UBDSV1 SAVING "FLOW FRONT FACE " ON UNIT  52 AT TIME STEP 28, STRESS PERIOD  10
 UBDSV4 SAVING "  STREAM LEAKAGE" ON UNIT  52 AT TIME STEP 28, STRESS PERIOD  10



 UBUDSV SAVING "           GW ET" ON UNIT 52 AT TIME STEP 28, STRESS PERIOD   10
 UBUDSV SAVING "    UZF RECHARGE" ON UNIT 52 AT TIME STEP 28, STRESS PERIOD   10
 UBUDSV SAVING " SURFACE LEAKAGE" ON UNIT 52 AT TIME STEP 28, STRESS PERIOD   10
 UBUDSV SAVING "       HORT+DUNN" ON UNIT 52 AT TIME STEP 28, STRESS PERIOD   10
 UBUDSV SAVING "  STORAGE CHANGE" ON UNIT 52 AT TIME STEP 28, STRESS PERIOD   10
 UBDSV4 SAVING "           AG WE" ON UNIT  52 AT TIME STEP 28, STRESS PERIOD  10

 HEAD WILL BE SAVED ON UNIT   51 AT END OF TIME STEP   28, STRESS PERIOD   10
 
 SOLVING FOR HEAD 

    ------------------------------------------------
       NWT REQUIRED            1 OUTER ITERATIONS 
       AND A TOTAL OF          2 INNER ITERATIONS.
    ------------------------------------------------

 OUTPUT CONTROL FOR STRESS PERIOD   10   TIME STEP   29
    SAVE HEAD FOR ALL LAYERS
    SAVE BUDGET
 UBDSV1 SAVING "         STORAGE" ON UNIT  52 AT TIME STEP 29, STRESS PERIOD  10
 UBDSV2 SAVING "   CONSTANT HEAD" ON UNIT  52 AT TIME STEP 29, STRESS PERIOD  10
 UBDSV1 SAVING "FLOW RIGHT FACE " ON UNIT  52 AT TIME STEP 29, STRESS PERIOD  10
 UBDSV1 SAVING "FLOW FRONT FACE " ON UNIT  52 AT TIME STEP 29, STRESS PERIOD  10
 UBDSV4 SAVING "  STREAM LEAKAGE" ON UNIT  52 AT TIME STEP 29, STRESS PERIOD  10



 UBUDSV SAVING "           GW ET" ON UNIT 52 AT TIME STEP 29, STRESS PERIOD   10
 UBUDSV SAVING "    UZF RECHARGE" ON UNIT 52 AT TIME STEP 29, STRESS PERIOD   10
 UBUDSV SAVING " SURFACE LEAKAGE" ON UNIT 52 AT TIME STEP 29, STRESS PERIOD   10
 UBUDSV SAVING "       HORT+DUNN" ON UNIT 52 AT TIME STEP 29, STRESS PERIOD   10
 UBUDSV SAVING "  STORAGE CHANGE" ON UNIT 52 AT TIME STEP 29, STRESS PERIOD   10
 UBDSV4 SAVING "           AG WE" ON UNIT  52 AT TIME STEP 29, STRESS PERIOD  10

 HEAD WILL BE SAVED ON UNIT   51 AT END OF TIME STEP   29, STRESS PERIOD   10
 
 SOLVING FOR HEAD 

    ------------------------------------------------
       NWT REQUIRED            1 OUTER ITERATIONS 
       AND A TOTAL OF          2 INNER ITERATIONS.
    ------------------------------------------------

 OUTPUT CONTROL FOR STRESS PERIOD   10   TIME STEP   30
    SAVE HEAD FOR ALL LAYERS
    SAVE BUDGET
 UBDSV1 SAVING "         STORAGE" ON UNIT  52 AT TIME STEP 30, STRESS PERIOD  10
 UBDSV2 SAVING "   CONSTANT HEAD" ON UNIT  52 AT TIME STEP 30, STRESS PERIOD  10
 UBDSV1 SAVING "FLOW RIGHT FACE " ON UNIT  52 AT TIME STEP 30, STRESS PERIOD  10
 UBDSV1 SAVING "FLOW FRONT FACE " ON UNIT  52 AT TIME STEP 30, STRESS PERIOD  10
 UBDSV4 SAVING "  STREAM LEAKAGE" ON UNIT  52 AT TIME STEP 30, STRESS PERIOD  10



 UBUDSV SAVING "           GW ET" ON UNIT 52 AT TIME STEP 30, STRESS PERIOD   10
 UBUDSV SAVING "    UZF RECHARGE" ON UNIT 52 AT TIME STEP 30, STRESS PERIOD   10
 UBUDSV SAVING " SURFACE LEAKAGE" ON UNIT 52 AT TIME STEP 30, STRESS PERIOD   10
 UBUDSV SAVING "       HORT+DUNN" ON UNIT 52 AT TIME STEP 30, STRESS PERIOD   10
 UBUDSV SAVING "  STORAGE CHANGE" ON UNIT 52 AT TIME STEP 30, STRESS PERIOD   10
 UBDSV4 SAVING "           AG WE" ON UNIT  52 AT TIME STEP 30, STRESS PERIOD  10

 HEAD WILL BE SAVED ON UNIT   51 AT END OF TIME STEP   30, STRESS PERIOD   10
 
 SOLVING FOR HEAD 

    ------------------------------------------------
       NWT REQUIRED            1 OUTER ITERATIONS 
       AND A TOTAL OF          2 INNER ITERATIONS.
    ------------------------------------------------

 OUTPUT CONTROL FOR STRESS PERIOD   10   TIME STEP   31
    SAVE HEAD FOR ALL LAYERS
    SAVE BUDGET
 UBDSV1 SAVING "         STORAGE" ON UNIT  52 AT TIME STEP 31, STRESS PERIOD  10
 UBDSV2 SAVING "   CONSTANT HEAD" ON UNIT  52 AT TIME STEP 31, STRESS PERIOD  10
 UBDSV1 SAVING "FLOW RIGHT FACE " ON UNIT  52 AT TIME STEP 31, STRESS PERIOD  10
 UBDSV1 SAVING "FLOW FRONT FACE " ON UNIT  52 AT TIME STEP 31, STRESS PERIOD  10
 UBDSV4 SAVING "  STREAM LEAKAGE" ON UNIT  52 AT TIME STEP 31, STRESS PERIOD  10



 UBUDSV SAVING "           GW ET" ON UNIT 52 AT TIME STEP 31, STRESS PERIOD   10
 UBUDSV SAVING "    UZF RECHARGE" ON UNIT 52 AT TIME STEP 31, STRESS PERIOD   10
 UBUDSV SAVING " SURFACE LEAKAGE" ON UNIT 52 AT TIME STEP 31, STRESS PERIOD   10
 UBUDSV SAVING "       HORT+DUNN" ON UNIT 52 AT TIME STEP 31, STRESS PERIOD   10
 UBUDSV SAVING "  STORAGE CHANGE" ON UNIT 52 AT TIME STEP 31, STRESS PERIOD   10


UNSATURATED ZONE PACKAGE VOLUMETRIC BUDGET FOR  TIME STEP    31 STRESS PERIOD   10
  ------------------------------------------------------------------------------



     CUMULATIVE VOLUMES      L**3       RATES FOR THIS TIME STEP      L**3/T
     ------------------                 ------------------------

           IN:                                      IN:
           ---                                      ---
        INFILTRATION =      143502.0372          INFILTRATION =         436.9907

          OUT:                                     OUT:
          ----                                     ----
              UZF ET =      159809.1667                UZF ET =         264.0484
        UZF RECHARGE =       10074.8785          UZF RECHARGE =           7.7654

            IN - OUT =      -26382.0079              IN - OUT =         165.1768

          STORAGE:                                 STORAGE:
          --------                                 --------
      STORAGE CHANGE =      -26382.2739        STORAGE CHANGE =         165.1768

 PERCENT DISCREPANCY IS DIFFERENCE BETWEEN IN-OUT MINUS CHANGE IN STORAGE
 DIVIDED BY THE AVERAGE OF IN AND OUT TIMES 100

 PERCENT DISCREPANCY =           0.00     PERCENT DISCREPANCY =          -0.00






 UBDSV4 SAVING "           AG WE" ON UNIT  52 AT TIME STEP 31, STRESS PERIOD  10
1
  VOLUMETRIC BUDGET FOR AGRICULTURAL FIELDS AT TIME STEP   31, STRESS PERIOD  10
  ------------------------------------------------------------------------------

     CUMULATIVE VOLUMES      L**3       RATES FOR THIS TIME STEP      L**3/T
     ------------------                 ------------------------

           IN:                                      IN:
           ---                                      ---
               AG WELLS  =        3212.4246                 AG WELLS  =           0.6855
      DIVERSION SEGMENTS =        5453.2588        DIVERSION SEGMENTS =          20.6855
           GW IRRIGATION =           0.0000             GW IRRIGATION =           0.0000
           SW IRRIGATION =           0.0000             SW IRRIGATION =           0.0000
        SYSTEM LOSSES GW =           0.0000          SYSTEM LOSSES GW =           0.0000
        SYSTEM LOSSES SW =           0.0000          SYSTEM LOSSES SW =           0.0000

                TOTAL IN =        8665.6836                  TOTAL IN =          21.3711

          OUT:                                     OUT:
          ----                                     ----
               AG WELLS  =           0.0000                 AG WELLS  =           0.0000
      DIVERSION SEGMENTS =           0.0000        DIVERSION SEGMENTS =           0.0000
           GW IRRIGATION =        3212.4246             GW IRRIGATION =           0.6855
           SW IRRIGATION =        5453.2588             SW IRRIGATION =          20.6855
        SYSTEM LOSSES GW =           0.0000          SYSTEM LOSSES GW =           0.0000
        SYSTEM LOSSES SW =           0.0000          SYSTEM LOSSES SW =           0.0000

               TOTAL OUT =        8665.6836                 TOTAL OUT =          21.3711

                IN - OUT =           0.0000                  IN - OUT =           0.0000

     PERCENT DISCREPANCY =           0.00         PERCENT DISCREPANCY =           0.00




 HEAD WILL BE SAVED ON UNIT   51 AT END OF TIME STEP   31, STRESS PERIOD   10
1
  VOLUMETRIC BUDGET FOR ENTIRE MODEL AT END OF TIME STEP   31, STRESS PERIOD  10
  ------------------------------------------------------------------------------

     CUMULATIVE VOLUMES      L**3       RATES FOR THIS TIME STEP      L**3/T
     ------------------                 ------------------------

           IN:                                      IN:
           ---                                      ---
             STORAGE     =         992.3105               STORAGE     =           0.2703
       CONSTANT HEAD     =           0.0000         CONSTANT HEAD     =           0.0000
      STREAM LEAKAGE     =          23.1110        STREAM LEAKAGE     =       7.6023E-02
        UZF RECHARGE     =       10074.8818          UZF RECHARGE     =           7.7654
               GW ET     =           0.0000                 GW ET     =           0.0000
     SURFACE LEAKAGE     =           0.0000       SURFACE LEAKAGE     =           0.0000
           AG WELLS      =           0.0000             AG WELLS      =           0.0000

                TOTAL IN =       11090.3037                  TOTAL IN =           8.1117

          OUT:                                     OUT:
          ----                                     ----
             STORAGE     =        7091.4604               STORAGE     =           7.0784
       CONSTANT HEAD     =           0.0000         CONSTANT HEAD     =           0.0000
      STREAM LEAKAGE     =           0.0000        STREAM LEAKAGE     =           0.0000
        UZF RECHARGE     =           0.0000          UZF RECHARGE     =           0.0000
               GW ET     =           0.0000                 GW ET     =           0.0000
     SURFACE LEAKAGE     =           0.0000       SURFACE LEAKAGE     =           0.0000
           AG WELLS      =        3212.4246             AG WELLS      =           0.6855

               TOTAL OUT =       10303.8848                 TOTAL OUT =           7.7639

                IN - OUT =         786.4189                  IN - OUT =           0.3478

     PERCENT DISCREPANCY =           7.35         PERCENT DISCREPANCY =           4.38






         TIME SUMMARY AT END OF TIME STEP   31 IN STRESS PERIOD   10
                    SECONDS     MINUTES      HOURS       DAYS        YEARS
                    -----------------------------------------------------------
   TIME STEP LENGTH  86400.      1440.0      24.000      1.0000     2.73785E-03
 STRESS PERIOD TIME 2.67840E+06  44640.      744.00      31.000     8.48734E-02
         TOTAL TIME 2.62656E+07 4.37760E+05  7296.0      304.00     0.83231    
1
1
                            STRESS PERIOD NO.   11, LENGTH =   30.00000    
                            -----------------------------------------------

                              NUMBER OF TIME STEPS =    30

                               MULTIPLIER FOR DELT =     1.000

                            INITIAL TIME STEP SIZE =   1.000000    



 CLASSIFICATION & COUNT OF STREAM SEGMENTS BASED ON SOURCE OF INFLOW:

                HEADWATER     DIVERSION     RECEIVES TRIBUTARY FLOW
                ---------     ---------     -----------------------
                     1              2               9



                    INPUT DATA FOR EACH STREAM SEGMENT
 ---------------------------------------------------------------------------------------------

 SEGMENT    SEG.     INFLOW   OVERLAND   STREAM    STREAM   ICALC  OUTFLOW  DIVERSION PRIORITY
    NO.    LENGTH     RATE     RUNOFF      ET       PPT.    METH.  TO SEG.  FROM SEG.    NO.

      1  1.000E+02 5.000E+01 0.000E+00 0.000E+00 0.000E+00    1        2        0        0
      2  1.000E+02 0.000E+00 0.000E+00 0.000E+00 0.000E+00    1        3        0        0
      3  1.000E+02 0.000E+00 0.000E+00 0.000E+00 0.000E+00    1        4        0        0
      4  1.000E+02 0.000E+00 0.000E+00 0.000E+00 0.000E+00    1        5        0        0
      5  1.000E+02 0.000E+00 0.000E+00 0.000E+00 0.000E+00    1        6        0        0
      6  1.000E+02 0.000E+00 0.000E+00 0.000E+00 0.000E+00    1        7        0        0
      7  1.000E+02 0.000E+00 0.000E+00 0.000E+00 0.000E+00    1        8        0        0
      8  1.000E+02 0.000E+00 0.000E+00 0.000E+00 0.000E+00    1        9        0        0
      9  1.000E+02 0.000E+00 0.000E+00 0.000E+00 0.000E+00    1       10        0        0
     10  1.000E+02 0.000E+00 0.000E+00 0.000E+00 0.000E+00    1        0        0        0
     11  1.000E+02 2.000E+01 0.000E+00 0.000E+00 0.000E+00    1        0        3        0
     12  1.000E+02 1.000E+01 0.000E+00 0.000E+00 0.000E+00    1        0        5        0


         STREAMBED PROPERTIES AND STREAM DIMENSIONS

 SEGMENT     BED HYD. COND.      BED THICKNESS     ELEV.-TOP OF BED     WIDTH OF STREAM     DEPTH OF STREAM    STREAM ROUGHNESS
    No.     UPPER     LOWER     UPPER     LOWER     UPPER     LOWER     UPPER     LOWER     UPPER     LOWER   CHANNEL      BANK

     1  1.500E-05 1.500E-05 5.000E-01 5.000E-01 9.900E+01 9.898E+01 5.000E+00 5.000E+00                     3.000E-02
     2  1.500E-05 1.500E-05 5.000E-01 5.000E-01 9.898E+01 9.896E+01 5.000E+00 5.000E+00                     3.000E-02
     3  1.500E-05 1.500E-05 5.000E-01 5.000E-01 9.896E+01 9.894E+01 5.000E+00 5.000E+00                     3.000E-02
     4  1.500E-05 1.500E-05 5.000E-01 5.000E-01 9.894E+01 9.892E+01 5.000E+00 5.000E+00                     3.000E-02
     5  1.500E-05 1.500E-05 5.000E-01 5.000E-01 9.892E+01 9.890E+01 5.000E+00 5.000E+00                     3.000E-02
     6  1.500E-05 1.500E-05 5.000E-01 5.000E-01 9.890E+01 9.888E+01 5.000E+00 5.000E+00                     3.000E-02
     7  1.500E-05 1.500E-05 5.000E-01 5.000E-01 9.888E+01 9.886E+01 5.000E+00 5.000E+00                     3.000E-02
     8  1.500E-05 1.500E-05 5.000E-01 5.000E-01 9.886E+01 9.884E+01 5.000E+00 5.000E+00                     3.000E-02
     9  1.500E-05 1.500E-05 5.000E-01 5.000E-01 9.884E+01 9.882E+01 5.000E+00 5.000E+00                     3.000E-02
    10  1.500E-05 1.500E-05 5.000E-01 5.000E-01 9.882E+01 9.880E+01 5.000E+00 5.000E+00                     3.000E-02
    11  1.500E-05 1.500E-05 5.000E-01 5.000E-01 9.894E+01 9.892E+01 5.000E+00 5.000E+00                     3.000E-02
    12  1.500E-05 1.500E-05 5.000E-01 5.000E-01 9.890E+01 9.888E+01 5.000E+00 5.000E+00                     3.000E-02






            AREAL INFILTRATION RATE
 READING ON UNIT   19 WITH FORMAT: (10E15.6)           



                            ET RATE
 READING ON UNIT   19 WITH FORMAT: (10E15.6)           



                ET EXTINCTION DEPTH
 READING ON UNIT   19 WITH FORMAT: (10E15.6)           



           EXTINCTION WATER CONTENT
 READING ON UNIT   19 WITH FORMAT: (10E15.6)           

 PROCESSING AG STRESS PERIOD DATA

 READING AG STRESS PERIOD DATA

 READING IRRIGATION SEGMENT

 READING IRRIGATION WELL

 READING SUPPLEMENTAL WELL

 END PROCESSING AG STRESS PERIOD DATA OPTIONS
 
 SOLVING FOR HEAD 

    ------------------------------------------------
       NWT REQUIRED            1 OUTER ITERATIONS 
       AND A TOTAL OF          2 INNER ITERATIONS.
    ------------------------------------------------

 OUTPUT CONTROL FOR STRESS PERIOD   11   TIME STEP    1
    SAVE HEAD FOR ALL LAYERS
    SAVE BUDGET
 UBDSV1 SAVING "         STORAGE" ON UNIT  52 AT TIME STEP  1, STRESS PERIOD  11
 UBDSV2 SAVING "   CONSTANT HEAD" ON UNIT  52 AT TIME STEP  1, STRESS PERIOD  11
 UBDSV1 SAVING "FLOW RIGHT FACE " ON UNIT  52 AT TIME STEP  1, STRESS PERIOD  11
 UBDSV1 SAVING "FLOW FRONT FACE " ON UNIT  52 AT TIME STEP  1, STRESS PERIOD  11
 UBDSV4 SAVING "  STREAM LEAKAGE" ON UNIT  52 AT TIME STEP  1, STRESS PERIOD  11



 UBUDSV SAVING "           GW ET" ON UNIT 52 AT TIME STEP  1, STRESS PERIOD   11
 UBUDSV SAVING "    UZF RECHARGE" ON UNIT 52 AT TIME STEP  1, STRESS PERIOD   11
 UBUDSV SAVING " SURFACE LEAKAGE" ON UNIT 52 AT TIME STEP  1, STRESS PERIOD   11
 UBUDSV SAVING "       HORT+DUNN" ON UNIT 52 AT TIME STEP  1, STRESS PERIOD   11
 UBUDSV SAVING "  STORAGE CHANGE" ON UNIT 52 AT TIME STEP  1, STRESS PERIOD   11
 UBDSV4 SAVING "           AG WE" ON UNIT  52 AT TIME STEP  1, STRESS PERIOD  11

 HEAD WILL BE SAVED ON UNIT   51 AT END OF TIME STEP    1, STRESS PERIOD   11
 
 SOLVING FOR HEAD 

    ------------------------------------------------
       NWT REQUIRED            1 OUTER ITERATIONS 
       AND A TOTAL OF          2 INNER ITERATIONS.
    ------------------------------------------------

 OUTPUT CONTROL FOR STRESS PERIOD   11   TIME STEP    2
    SAVE HEAD FOR ALL LAYERS
    SAVE BUDGET
 UBDSV1 SAVING "         STORAGE" ON UNIT  52 AT TIME STEP  2, STRESS PERIOD  11
 UBDSV2 SAVING "   CONSTANT HEAD" ON UNIT  52 AT TIME STEP  2, STRESS PERIOD  11
 UBDSV1 SAVING "FLOW RIGHT FACE " ON UNIT  52 AT TIME STEP  2, STRESS PERIOD  11
 UBDSV1 SAVING "FLOW FRONT FACE " ON UNIT  52 AT TIME STEP  2, STRESS PERIOD  11
 UBDSV4 SAVING "  STREAM LEAKAGE" ON UNIT  52 AT TIME STEP  2, STRESS PERIOD  11



 UBUDSV SAVING "           GW ET" ON UNIT 52 AT TIME STEP  2, STRESS PERIOD   11
 UBUDSV SAVING "    UZF RECHARGE" ON UNIT 52 AT TIME STEP  2, STRESS PERIOD   11
 UBUDSV SAVING " SURFACE LEAKAGE" ON UNIT 52 AT TIME STEP  2, STRESS PERIOD   11
 UBUDSV SAVING "       HORT+DUNN" ON UNIT 52 AT TIME STEP  2, STRESS PERIOD   11
 UBUDSV SAVING "  STORAGE CHANGE" ON UNIT 52 AT TIME STEP  2, STRESS PERIOD   11
 UBDSV4 SAVING "           AG WE" ON UNIT  52 AT TIME STEP  2, STRESS PERIOD  11

 HEAD WILL BE SAVED ON UNIT   51 AT END OF TIME STEP    2, STRESS PERIOD   11
 
 SOLVING FOR HEAD 

    ------------------------------------------------
       NWT REQUIRED            1 OUTER ITERATIONS 
       AND A TOTAL OF          2 INNER ITERATIONS.
    ------------------------------------------------

 OUTPUT CONTROL FOR STRESS PERIOD   11   TIME STEP    3
    SAVE HEAD FOR ALL LAYERS
    SAVE BUDGET
 UBDSV1 SAVING "         STORAGE" ON UNIT  52 AT TIME STEP  3, STRESS PERIOD  11
 UBDSV2 SAVING "   CONSTANT HEAD" ON UNIT  52 AT TIME STEP  3, STRESS PERIOD  11
 UBDSV1 SAVING "FLOW RIGHT FACE " ON UNIT  52 AT TIME STEP  3, STRESS PERIOD  11
 UBDSV1 SAVING "FLOW FRONT FACE " ON UNIT  52 AT TIME STEP  3, STRESS PERIOD  11
 UBDSV4 SAVING "  STREAM LEAKAGE" ON UNIT  52 AT TIME STEP  3, STRESS PERIOD  11



 UBUDSV SAVING "           GW ET" ON UNIT 52 AT TIME STEP  3, STRESS PERIOD   11
 UBUDSV SAVING "    UZF RECHARGE" ON UNIT 52 AT TIME STEP  3, STRESS PERIOD   11
 UBUDSV SAVING " SURFACE LEAKAGE" ON UNIT 52 AT TIME STEP  3, STRESS PERIOD   11
 UBUDSV SAVING "       HORT+DUNN" ON UNIT 52 AT TIME STEP  3, STRESS PERIOD   11
 UBUDSV SAVING "  STORAGE CHANGE" ON UNIT 52 AT TIME STEP  3, STRESS PERIOD   11
 UBDSV4 SAVING "           AG WE" ON UNIT  52 AT TIME STEP  3, STRESS PERIOD  11

 HEAD WILL BE SAVED ON UNIT   51 AT END OF TIME STEP    3, STRESS PERIOD   11
 
 SOLVING FOR HEAD 

    ------------------------------------------------
       NWT REQUIRED            1 OUTER ITERATIONS 
       AND A TOTAL OF          2 INNER ITERATIONS.
    ------------------------------------------------

 OUTPUT CONTROL FOR STRESS PERIOD   11   TIME STEP    4
    SAVE HEAD FOR ALL LAYERS
    SAVE BUDGET
 UBDSV1 SAVING "         STORAGE" ON UNIT  52 AT TIME STEP  4, STRESS PERIOD  11
 UBDSV2 SAVING "   CONSTANT HEAD" ON UNIT  52 AT TIME STEP  4, STRESS PERIOD  11
 UBDSV1 SAVING "FLOW RIGHT FACE " ON UNIT  52 AT TIME STEP  4, STRESS PERIOD  11
 UBDSV1 SAVING "FLOW FRONT FACE " ON UNIT  52 AT TIME STEP  4, STRESS PERIOD  11
 UBDSV4 SAVING "  STREAM LEAKAGE" ON UNIT  52 AT TIME STEP  4, STRESS PERIOD  11



 UBUDSV SAVING "           GW ET" ON UNIT 52 AT TIME STEP  4, STRESS PERIOD   11
 UBUDSV SAVING "    UZF RECHARGE" ON UNIT 52 AT TIME STEP  4, STRESS PERIOD   11
 UBUDSV SAVING " SURFACE LEAKAGE" ON UNIT 52 AT TIME STEP  4, STRESS PERIOD   11
 UBUDSV SAVING "       HORT+DUNN" ON UNIT 52 AT TIME STEP  4, STRESS PERIOD   11
 UBUDSV SAVING "  STORAGE CHANGE" ON UNIT 52 AT TIME STEP  4, STRESS PERIOD   11
 UBDSV4 SAVING "           AG WE" ON UNIT  52 AT TIME STEP  4, STRESS PERIOD  11

 HEAD WILL BE SAVED ON UNIT   51 AT END OF TIME STEP    4, STRESS PERIOD   11
 
 SOLVING FOR HEAD 

    ------------------------------------------------
       NWT REQUIRED            1 OUTER ITERATIONS 
       AND A TOTAL OF          1 INNER ITERATIONS.
    ------------------------------------------------

 OUTPUT CONTROL FOR STRESS PERIOD   11   TIME STEP    5
    SAVE HEAD FOR ALL LAYERS
    SAVE BUDGET
 UBDSV1 SAVING "         STORAGE" ON UNIT  52 AT TIME STEP  5, STRESS PERIOD  11
 UBDSV2 SAVING "   CONSTANT HEAD" ON UNIT  52 AT TIME STEP  5, STRESS PERIOD  11
 UBDSV1 SAVING "FLOW RIGHT FACE " ON UNIT  52 AT TIME STEP  5, STRESS PERIOD  11
 UBDSV1 SAVING "FLOW FRONT FACE " ON UNIT  52 AT TIME STEP  5, STRESS PERIOD  11
 UBDSV4 SAVING "  STREAM LEAKAGE" ON UNIT  52 AT TIME STEP  5, STRESS PERIOD  11



 UBUDSV SAVING "           GW ET" ON UNIT 52 AT TIME STEP  5, STRESS PERIOD   11
 UBUDSV SAVING "    UZF RECHARGE" ON UNIT 52 AT TIME STEP  5, STRESS PERIOD   11
 UBUDSV SAVING " SURFACE LEAKAGE" ON UNIT 52 AT TIME STEP  5, STRESS PERIOD   11
 UBUDSV SAVING "       HORT+DUNN" ON UNIT 52 AT TIME STEP  5, STRESS PERIOD   11
 UBUDSV SAVING "  STORAGE CHANGE" ON UNIT 52 AT TIME STEP  5, STRESS PERIOD   11
 UBDSV4 SAVING "           AG WE" ON UNIT  52 AT TIME STEP  5, STRESS PERIOD  11

 HEAD WILL BE SAVED ON UNIT   51 AT END OF TIME STEP    5, STRESS PERIOD   11
 
 SOLVING FOR HEAD 

    ------------------------------------------------
       NWT REQUIRED            1 OUTER ITERATIONS 
       AND A TOTAL OF          1 INNER ITERATIONS.
    ------------------------------------------------

 OUTPUT CONTROL FOR STRESS PERIOD   11   TIME STEP    6
    SAVE HEAD FOR ALL LAYERS
    SAVE BUDGET
 UBDSV1 SAVING "         STORAGE" ON UNIT  52 AT TIME STEP  6, STRESS PERIOD  11
 UBDSV2 SAVING "   CONSTANT HEAD" ON UNIT  52 AT TIME STEP  6, STRESS PERIOD  11
 UBDSV1 SAVING "FLOW RIGHT FACE " ON UNIT  52 AT TIME STEP  6, STRESS PERIOD  11
 UBDSV1 SAVING "FLOW FRONT FACE " ON UNIT  52 AT TIME STEP  6, STRESS PERIOD  11
 UBDSV4 SAVING "  STREAM LEAKAGE" ON UNIT  52 AT TIME STEP  6, STRESS PERIOD  11



 UBUDSV SAVING "           GW ET" ON UNIT 52 AT TIME STEP  6, STRESS PERIOD   11
 UBUDSV SAVING "    UZF RECHARGE" ON UNIT 52 AT TIME STEP  6, STRESS PERIOD   11
 UBUDSV SAVING " SURFACE LEAKAGE" ON UNIT 52 AT TIME STEP  6, STRESS PERIOD   11
 UBUDSV SAVING "       HORT+DUNN" ON UNIT 52 AT TIME STEP  6, STRESS PERIOD   11
 UBUDSV SAVING "  STORAGE CHANGE" ON UNIT 52 AT TIME STEP  6, STRESS PERIOD   11
 UBDSV4 SAVING "           AG WE" ON UNIT  52 AT TIME STEP  6, STRESS PERIOD  11

 HEAD WILL BE SAVED ON UNIT   51 AT END OF TIME STEP    6, STRESS PERIOD   11
 
 SOLVING FOR HEAD 

    ------------------------------------------------
       NWT REQUIRED            1 OUTER ITERATIONS 
       AND A TOTAL OF          1 INNER ITERATIONS.
    ------------------------------------------------

 OUTPUT CONTROL FOR STRESS PERIOD   11   TIME STEP    7
    SAVE HEAD FOR ALL LAYERS
    SAVE BUDGET
 UBDSV1 SAVING "         STORAGE" ON UNIT  52 AT TIME STEP  7, STRESS PERIOD  11
 UBDSV2 SAVING "   CONSTANT HEAD" ON UNIT  52 AT TIME STEP  7, STRESS PERIOD  11
 UBDSV1 SAVING "FLOW RIGHT FACE " ON UNIT  52 AT TIME STEP  7, STRESS PERIOD  11
 UBDSV1 SAVING "FLOW FRONT FACE " ON UNIT  52 AT TIME STEP  7, STRESS PERIOD  11
 UBDSV4 SAVING "  STREAM LEAKAGE" ON UNIT  52 AT TIME STEP  7, STRESS PERIOD  11



 UBUDSV SAVING "           GW ET" ON UNIT 52 AT TIME STEP  7, STRESS PERIOD   11
 UBUDSV SAVING "    UZF RECHARGE" ON UNIT 52 AT TIME STEP  7, STRESS PERIOD   11
 UBUDSV SAVING " SURFACE LEAKAGE" ON UNIT 52 AT TIME STEP  7, STRESS PERIOD   11
 UBUDSV SAVING "       HORT+DUNN" ON UNIT 52 AT TIME STEP  7, STRESS PERIOD   11
 UBUDSV SAVING "  STORAGE CHANGE" ON UNIT 52 AT TIME STEP  7, STRESS PERIOD   11
 UBDSV4 SAVING "           AG WE" ON UNIT  52 AT TIME STEP  7, STRESS PERIOD  11

 HEAD WILL BE SAVED ON UNIT   51 AT END OF TIME STEP    7, STRESS PERIOD   11
 
 SOLVING FOR HEAD 

    ------------------------------------------------
       NWT REQUIRED            1 OUTER ITERATIONS 
       AND A TOTAL OF          1 INNER ITERATIONS.
    ------------------------------------------------

 OUTPUT CONTROL FOR STRESS PERIOD   11   TIME STEP    8
    SAVE HEAD FOR ALL LAYERS
    SAVE BUDGET
 UBDSV1 SAVING "         STORAGE" ON UNIT  52 AT TIME STEP  8, STRESS PERIOD  11
 UBDSV2 SAVING "   CONSTANT HEAD" ON UNIT  52 AT TIME STEP  8, STRESS PERIOD  11
 UBDSV1 SAVING "FLOW RIGHT FACE " ON UNIT  52 AT TIME STEP  8, STRESS PERIOD  11
 UBDSV1 SAVING "FLOW FRONT FACE " ON UNIT  52 AT TIME STEP  8, STRESS PERIOD  11
 UBDSV4 SAVING "  STREAM LEAKAGE" ON UNIT  52 AT TIME STEP  8, STRESS PERIOD  11



 UBUDSV SAVING "           GW ET" ON UNIT 52 AT TIME STEP  8, STRESS PERIOD   11
 UBUDSV SAVING "    UZF RECHARGE" ON UNIT 52 AT TIME STEP  8, STRESS PERIOD   11
 UBUDSV SAVING " SURFACE LEAKAGE" ON UNIT 52 AT TIME STEP  8, STRESS PERIOD   11
 UBUDSV SAVING "       HORT+DUNN" ON UNIT 52 AT TIME STEP  8, STRESS PERIOD   11
 UBUDSV SAVING "  STORAGE CHANGE" ON UNIT 52 AT TIME STEP  8, STRESS PERIOD   11
 UBDSV4 SAVING "           AG WE" ON UNIT  52 AT TIME STEP  8, STRESS PERIOD  11

 HEAD WILL BE SAVED ON UNIT   51 AT END OF TIME STEP    8, STRESS PERIOD   11
 
 SOLVING FOR HEAD 

    ------------------------------------------------
       NWT REQUIRED            1 OUTER ITERATIONS 
       AND A TOTAL OF          1 INNER ITERATIONS.
    ------------------------------------------------

 OUTPUT CONTROL FOR STRESS PERIOD   11   TIME STEP    9
    SAVE HEAD FOR ALL LAYERS
    SAVE BUDGET
 UBDSV1 SAVING "         STORAGE" ON UNIT  52 AT TIME STEP  9, STRESS PERIOD  11
 UBDSV2 SAVING "   CONSTANT HEAD" ON UNIT  52 AT TIME STEP  9, STRESS PERIOD  11
 UBDSV1 SAVING "FLOW RIGHT FACE " ON UNIT  52 AT TIME STEP  9, STRESS PERIOD  11
 UBDSV1 SAVING "FLOW FRONT FACE " ON UNIT  52 AT TIME STEP  9, STRESS PERIOD  11
 UBDSV4 SAVING "  STREAM LEAKAGE" ON UNIT  52 AT TIME STEP  9, STRESS PERIOD  11



 UBUDSV SAVING "           GW ET" ON UNIT 52 AT TIME STEP  9, STRESS PERIOD   11
 UBUDSV SAVING "    UZF RECHARGE" ON UNIT 52 AT TIME STEP  9, STRESS PERIOD   11
 UBUDSV SAVING " SURFACE LEAKAGE" ON UNIT 52 AT TIME STEP  9, STRESS PERIOD   11
 UBUDSV SAVING "       HORT+DUNN" ON UNIT 52 AT TIME STEP  9, STRESS PERIOD   11
 UBUDSV SAVING "  STORAGE CHANGE" ON UNIT 52 AT TIME STEP  9, STRESS PERIOD   11
 UBDSV4 SAVING "           AG WE" ON UNIT  52 AT TIME STEP  9, STRESS PERIOD  11

 HEAD WILL BE SAVED ON UNIT   51 AT END OF TIME STEP    9, STRESS PERIOD   11
 
 SOLVING FOR HEAD 

    ------------------------------------------------
       NWT REQUIRED            1 OUTER ITERATIONS 
       AND A TOTAL OF          1 INNER ITERATIONS.
    ------------------------------------------------

 OUTPUT CONTROL FOR STRESS PERIOD   11   TIME STEP   10
    SAVE HEAD FOR ALL LAYERS
    SAVE BUDGET
 UBDSV1 SAVING "         STORAGE" ON UNIT  52 AT TIME STEP 10, STRESS PERIOD  11
 UBDSV2 SAVING "   CONSTANT HEAD" ON UNIT  52 AT TIME STEP 10, STRESS PERIOD  11
 UBDSV1 SAVING "FLOW RIGHT FACE " ON UNIT  52 AT TIME STEP 10, STRESS PERIOD  11
 UBDSV1 SAVING "FLOW FRONT FACE " ON UNIT  52 AT TIME STEP 10, STRESS PERIOD  11
 UBDSV4 SAVING "  STREAM LEAKAGE" ON UNIT  52 AT TIME STEP 10, STRESS PERIOD  11



 UBUDSV SAVING "           GW ET" ON UNIT 52 AT TIME STEP 10, STRESS PERIOD   11
 UBUDSV SAVING "    UZF RECHARGE" ON UNIT 52 AT TIME STEP 10, STRESS PERIOD   11
 UBUDSV SAVING " SURFACE LEAKAGE" ON UNIT 52 AT TIME STEP 10, STRESS PERIOD   11
 UBUDSV SAVING "       HORT+DUNN" ON UNIT 52 AT TIME STEP 10, STRESS PERIOD   11
 UBUDSV SAVING "  STORAGE CHANGE" ON UNIT 52 AT TIME STEP 10, STRESS PERIOD   11
 UBDSV4 SAVING "           AG WE" ON UNIT  52 AT TIME STEP 10, STRESS PERIOD  11

 HEAD WILL BE SAVED ON UNIT   51 AT END OF TIME STEP   10, STRESS PERIOD   11
 
 SOLVING FOR HEAD 

    ------------------------------------------------
       NWT REQUIRED            1 OUTER ITERATIONS 
       AND A TOTAL OF          1 INNER ITERATIONS.
    ------------------------------------------------

 OUTPUT CONTROL FOR STRESS PERIOD   11   TIME STEP   11
    SAVE HEAD FOR ALL LAYERS
    SAVE BUDGET
 UBDSV1 SAVING "         STORAGE" ON UNIT  52 AT TIME STEP 11, STRESS PERIOD  11
 UBDSV2 SAVING "   CONSTANT HEAD" ON UNIT  52 AT TIME STEP 11, STRESS PERIOD  11
 UBDSV1 SAVING "FLOW RIGHT FACE " ON UNIT  52 AT TIME STEP 11, STRESS PERIOD  11
 UBDSV1 SAVING "FLOW FRONT FACE " ON UNIT  52 AT TIME STEP 11, STRESS PERIOD  11
 UBDSV4 SAVING "  STREAM LEAKAGE" ON UNIT  52 AT TIME STEP 11, STRESS PERIOD  11



 UBUDSV SAVING "           GW ET" ON UNIT 52 AT TIME STEP 11, STRESS PERIOD   11
 UBUDSV SAVING "    UZF RECHARGE" ON UNIT 52 AT TIME STEP 11, STRESS PERIOD   11
 UBUDSV SAVING " SURFACE LEAKAGE" ON UNIT 52 AT TIME STEP 11, STRESS PERIOD   11
 UBUDSV SAVING "       HORT+DUNN" ON UNIT 52 AT TIME STEP 11, STRESS PERIOD   11
 UBUDSV SAVING "  STORAGE CHANGE" ON UNIT 52 AT TIME STEP 11, STRESS PERIOD   11
 UBDSV4 SAVING "           AG WE" ON UNIT  52 AT TIME STEP 11, STRESS PERIOD  11

 HEAD WILL BE SAVED ON UNIT   51 AT END OF TIME STEP   11, STRESS PERIOD   11
 
 SOLVING FOR HEAD 

    ------------------------------------------------
       NWT REQUIRED            1 OUTER ITERATIONS 
       AND A TOTAL OF          1 INNER ITERATIONS.
    ------------------------------------------------

 OUTPUT CONTROL FOR STRESS PERIOD   11   TIME STEP   12
    SAVE HEAD FOR ALL LAYERS
    SAVE BUDGET
 UBDSV1 SAVING "         STORAGE" ON UNIT  52 AT TIME STEP 12, STRESS PERIOD  11
 UBDSV2 SAVING "   CONSTANT HEAD" ON UNIT  52 AT TIME STEP 12, STRESS PERIOD  11
 UBDSV1 SAVING "FLOW RIGHT FACE " ON UNIT  52 AT TIME STEP 12, STRESS PERIOD  11
 UBDSV1 SAVING "FLOW FRONT FACE " ON UNIT  52 AT TIME STEP 12, STRESS PERIOD  11
 UBDSV4 SAVING "  STREAM LEAKAGE" ON UNIT  52 AT TIME STEP 12, STRESS PERIOD  11



 UBUDSV SAVING "           GW ET" ON UNIT 52 AT TIME STEP 12, STRESS PERIOD   11
 UBUDSV SAVING "    UZF RECHARGE" ON UNIT 52 AT TIME STEP 12, STRESS PERIOD   11
 UBUDSV SAVING " SURFACE LEAKAGE" ON UNIT 52 AT TIME STEP 12, STRESS PERIOD   11
 UBUDSV SAVING "       HORT+DUNN" ON UNIT 52 AT TIME STEP 12, STRESS PERIOD   11
 UBUDSV SAVING "  STORAGE CHANGE" ON UNIT 52 AT TIME STEP 12, STRESS PERIOD   11
 UBDSV4 SAVING "           AG WE" ON UNIT  52 AT TIME STEP 12, STRESS PERIOD  11

 HEAD WILL BE SAVED ON UNIT   51 AT END OF TIME STEP   12, STRESS PERIOD   11
 
 SOLVING FOR HEAD 

    ------------------------------------------------
       NWT REQUIRED            1 OUTER ITERATIONS 
       AND A TOTAL OF          1 INNER ITERATIONS.
    ------------------------------------------------

 OUTPUT CONTROL FOR STRESS PERIOD   11   TIME STEP   13
    SAVE HEAD FOR ALL LAYERS
    SAVE BUDGET
 UBDSV1 SAVING "         STORAGE" ON UNIT  52 AT TIME STEP 13, STRESS PERIOD  11
 UBDSV2 SAVING "   CONSTANT HEAD" ON UNIT  52 AT TIME STEP 13, STRESS PERIOD  11
 UBDSV1 SAVING "FLOW RIGHT FACE " ON UNIT  52 AT TIME STEP 13, STRESS PERIOD  11
 UBDSV1 SAVING "FLOW FRONT FACE " ON UNIT  52 AT TIME STEP 13, STRESS PERIOD  11
 UBDSV4 SAVING "  STREAM LEAKAGE" ON UNIT  52 AT TIME STEP 13, STRESS PERIOD  11



 UBUDSV SAVING "           GW ET" ON UNIT 52 AT TIME STEP 13, STRESS PERIOD   11
 UBUDSV SAVING "    UZF RECHARGE" ON UNIT 52 AT TIME STEP 13, STRESS PERIOD   11
 UBUDSV SAVING " SURFACE LEAKAGE" ON UNIT 52 AT TIME STEP 13, STRESS PERIOD   11
 UBUDSV SAVING "       HORT+DUNN" ON UNIT 52 AT TIME STEP 13, STRESS PERIOD   11
 UBUDSV SAVING "  STORAGE CHANGE" ON UNIT 52 AT TIME STEP 13, STRESS PERIOD   11
 UBDSV4 SAVING "           AG WE" ON UNIT  52 AT TIME STEP 13, STRESS PERIOD  11

 HEAD WILL BE SAVED ON UNIT   51 AT END OF TIME STEP   13, STRESS PERIOD   11
 
 SOLVING FOR HEAD 

    ------------------------------------------------
       NWT REQUIRED            1 OUTER ITERATIONS 
       AND A TOTAL OF          1 INNER ITERATIONS.
    ------------------------------------------------

 OUTPUT CONTROL FOR STRESS PERIOD   11   TIME STEP   14
    SAVE HEAD FOR ALL LAYERS
    SAVE BUDGET
 UBDSV1 SAVING "         STORAGE" ON UNIT  52 AT TIME STEP 14, STRESS PERIOD  11
 UBDSV2 SAVING "   CONSTANT HEAD" ON UNIT  52 AT TIME STEP 14, STRESS PERIOD  11
 UBDSV1 SAVING "FLOW RIGHT FACE " ON UNIT  52 AT TIME STEP 14, STRESS PERIOD  11
 UBDSV1 SAVING "FLOW FRONT FACE " ON UNIT  52 AT TIME STEP 14, STRESS PERIOD  11
 UBDSV4 SAVING "  STREAM LEAKAGE" ON UNIT  52 AT TIME STEP 14, STRESS PERIOD  11



 UBUDSV SAVING "           GW ET" ON UNIT 52 AT TIME STEP 14, STRESS PERIOD   11
 UBUDSV SAVING "    UZF RECHARGE" ON UNIT 52 AT TIME STEP 14, STRESS PERIOD   11
 UBUDSV SAVING " SURFACE LEAKAGE" ON UNIT 52 AT TIME STEP 14, STRESS PERIOD   11
 UBUDSV SAVING "       HORT+DUNN" ON UNIT 52 AT TIME STEP 14, STRESS PERIOD   11
 UBUDSV SAVING "  STORAGE CHANGE" ON UNIT 52 AT TIME STEP 14, STRESS PERIOD   11
 UBDSV4 SAVING "           AG WE" ON UNIT  52 AT TIME STEP 14, STRESS PERIOD  11

 HEAD WILL BE SAVED ON UNIT   51 AT END OF TIME STEP   14, STRESS PERIOD   11
 
 SOLVING FOR HEAD 

    ------------------------------------------------
       NWT REQUIRED            1 OUTER ITERATIONS 
       AND A TOTAL OF          1 INNER ITERATIONS.
    ------------------------------------------------

 OUTPUT CONTROL FOR STRESS PERIOD   11   TIME STEP   15
    SAVE HEAD FOR ALL LAYERS
    SAVE BUDGET
 UBDSV1 SAVING "         STORAGE" ON UNIT  52 AT TIME STEP 15, STRESS PERIOD  11
 UBDSV2 SAVING "   CONSTANT HEAD" ON UNIT  52 AT TIME STEP 15, STRESS PERIOD  11
 UBDSV1 SAVING "FLOW RIGHT FACE " ON UNIT  52 AT TIME STEP 15, STRESS PERIOD  11
 UBDSV1 SAVING "FLOW FRONT FACE " ON UNIT  52 AT TIME STEP 15, STRESS PERIOD  11
 UBDSV4 SAVING "  STREAM LEAKAGE" ON UNIT  52 AT TIME STEP 15, STRESS PERIOD  11



 UBUDSV SAVING "           GW ET" ON UNIT 52 AT TIME STEP 15, STRESS PERIOD   11
 UBUDSV SAVING "    UZF RECHARGE" ON UNIT 52 AT TIME STEP 15, STRESS PERIOD   11
 UBUDSV SAVING " SURFACE LEAKAGE" ON UNIT 52 AT TIME STEP 15, STRESS PERIOD   11
 UBUDSV SAVING "       HORT+DUNN" ON UNIT 52 AT TIME STEP 15, STRESS PERIOD   11
 UBUDSV SAVING "  STORAGE CHANGE" ON UNIT 52 AT TIME STEP 15, STRESS PERIOD   11
 UBDSV4 SAVING "           AG WE" ON UNIT  52 AT TIME STEP 15, STRESS PERIOD  11

 HEAD WILL BE SAVED ON UNIT   51 AT END OF TIME STEP   15, STRESS PERIOD   11
 
 SOLVING FOR HEAD 

    ------------------------------------------------
       NWT REQUIRED            1 OUTER ITERATIONS 
       AND A TOTAL OF          1 INNER ITERATIONS.
    ------------------------------------------------

 OUTPUT CONTROL FOR STRESS PERIOD   11   TIME STEP   16
    SAVE HEAD FOR ALL LAYERS
    SAVE BUDGET
 UBDSV1 SAVING "         STORAGE" ON UNIT  52 AT TIME STEP 16, STRESS PERIOD  11
 UBDSV2 SAVING "   CONSTANT HEAD" ON UNIT  52 AT TIME STEP 16, STRESS PERIOD  11
 UBDSV1 SAVING "FLOW RIGHT FACE " ON UNIT  52 AT TIME STEP 16, STRESS PERIOD  11
 UBDSV1 SAVING "FLOW FRONT FACE " ON UNIT  52 AT TIME STEP 16, STRESS PERIOD  11
 UBDSV4 SAVING "  STREAM LEAKAGE" ON UNIT  52 AT TIME STEP 16, STRESS PERIOD  11



 UBUDSV SAVING "           GW ET" ON UNIT 52 AT TIME STEP 16, STRESS PERIOD   11
 UBUDSV SAVING "    UZF RECHARGE" ON UNIT 52 AT TIME STEP 16, STRESS PERIOD   11
 UBUDSV SAVING " SURFACE LEAKAGE" ON UNIT 52 AT TIME STEP 16, STRESS PERIOD   11
 UBUDSV SAVING "       HORT+DUNN" ON UNIT 52 AT TIME STEP 16, STRESS PERIOD   11
 UBUDSV SAVING "  STORAGE CHANGE" ON UNIT 52 AT TIME STEP 16, STRESS PERIOD   11
 UBDSV4 SAVING "           AG WE" ON UNIT  52 AT TIME STEP 16, STRESS PERIOD  11

 HEAD WILL BE SAVED ON UNIT   51 AT END OF TIME STEP   16, STRESS PERIOD   11
 
 SOLVING FOR HEAD 

    ------------------------------------------------
       NWT REQUIRED            1 OUTER ITERATIONS 
       AND A TOTAL OF          1 INNER ITERATIONS.
    ------------------------------------------------

 OUTPUT CONTROL FOR STRESS PERIOD   11   TIME STEP   17
    SAVE HEAD FOR ALL LAYERS
    SAVE BUDGET
 UBDSV1 SAVING "         STORAGE" ON UNIT  52 AT TIME STEP 17, STRESS PERIOD  11
 UBDSV2 SAVING "   CONSTANT HEAD" ON UNIT  52 AT TIME STEP 17, STRESS PERIOD  11
 UBDSV1 SAVING "FLOW RIGHT FACE " ON UNIT  52 AT TIME STEP 17, STRESS PERIOD  11
 UBDSV1 SAVING "FLOW FRONT FACE " ON UNIT  52 AT TIME STEP 17, STRESS PERIOD  11
 UBDSV4 SAVING "  STREAM LEAKAGE" ON UNIT  52 AT TIME STEP 17, STRESS PERIOD  11



 UBUDSV SAVING "           GW ET" ON UNIT 52 AT TIME STEP 17, STRESS PERIOD   11
 UBUDSV SAVING "    UZF RECHARGE" ON UNIT 52 AT TIME STEP 17, STRESS PERIOD   11
 UBUDSV SAVING " SURFACE LEAKAGE" ON UNIT 52 AT TIME STEP 17, STRESS PERIOD   11
 UBUDSV SAVING "       HORT+DUNN" ON UNIT 52 AT TIME STEP 17, STRESS PERIOD   11
 UBUDSV SAVING "  STORAGE CHANGE" ON UNIT 52 AT TIME STEP 17, STRESS PERIOD   11
 UBDSV4 SAVING "           AG WE" ON UNIT  52 AT TIME STEP 17, STRESS PERIOD  11

 HEAD WILL BE SAVED ON UNIT   51 AT END OF TIME STEP   17, STRESS PERIOD   11
 
 SOLVING FOR HEAD 

    ------------------------------------------------
       NWT REQUIRED            1 OUTER ITERATIONS 
       AND A TOTAL OF          1 INNER ITERATIONS.
    ------------------------------------------------

 OUTPUT CONTROL FOR STRESS PERIOD   11   TIME STEP   18
    SAVE HEAD FOR ALL LAYERS
    SAVE BUDGET
 UBDSV1 SAVING "         STORAGE" ON UNIT  52 AT TIME STEP 18, STRESS PERIOD  11
 UBDSV2 SAVING "   CONSTANT HEAD" ON UNIT  52 AT TIME STEP 18, STRESS PERIOD  11
 UBDSV1 SAVING "FLOW RIGHT FACE " ON UNIT  52 AT TIME STEP 18, STRESS PERIOD  11
 UBDSV1 SAVING "FLOW FRONT FACE " ON UNIT  52 AT TIME STEP 18, STRESS PERIOD  11
 UBDSV4 SAVING "  STREAM LEAKAGE" ON UNIT  52 AT TIME STEP 18, STRESS PERIOD  11



 UBUDSV SAVING "           GW ET" ON UNIT 52 AT TIME STEP 18, STRESS PERIOD   11
 UBUDSV SAVING "    UZF RECHARGE" ON UNIT 52 AT TIME STEP 18, STRESS PERIOD   11
 UBUDSV SAVING " SURFACE LEAKAGE" ON UNIT 52 AT TIME STEP 18, STRESS PERIOD   11
 UBUDSV SAVING "       HORT+DUNN" ON UNIT 52 AT TIME STEP 18, STRESS PERIOD   11
 UBUDSV SAVING "  STORAGE CHANGE" ON UNIT 52 AT TIME STEP 18, STRESS PERIOD   11
 UBDSV4 SAVING "           AG WE" ON UNIT  52 AT TIME STEP 18, STRESS PERIOD  11

 HEAD WILL BE SAVED ON UNIT   51 AT END OF TIME STEP   18, STRESS PERIOD   11
 
 SOLVING FOR HEAD 

    ------------------------------------------------
       NWT REQUIRED            1 OUTER ITERATIONS 
       AND A TOTAL OF          1 INNER ITERATIONS.
    ------------------------------------------------

 OUTPUT CONTROL FOR STRESS PERIOD   11   TIME STEP   19
    SAVE HEAD FOR ALL LAYERS
    SAVE BUDGET
 UBDSV1 SAVING "         STORAGE" ON UNIT  52 AT TIME STEP 19, STRESS PERIOD  11
 UBDSV2 SAVING "   CONSTANT HEAD" ON UNIT  52 AT TIME STEP 19, STRESS PERIOD  11
 UBDSV1 SAVING "FLOW RIGHT FACE " ON UNIT  52 AT TIME STEP 19, STRESS PERIOD  11
 UBDSV1 SAVING "FLOW FRONT FACE " ON UNIT  52 AT TIME STEP 19, STRESS PERIOD  11
 UBDSV4 SAVING "  STREAM LEAKAGE" ON UNIT  52 AT TIME STEP 19, STRESS PERIOD  11



 UBUDSV SAVING "           GW ET" ON UNIT 52 AT TIME STEP 19, STRESS PERIOD   11
 UBUDSV SAVING "    UZF RECHARGE" ON UNIT 52 AT TIME STEP 19, STRESS PERIOD   11
 UBUDSV SAVING " SURFACE LEAKAGE" ON UNIT 52 AT TIME STEP 19, STRESS PERIOD   11
 UBUDSV SAVING "       HORT+DUNN" ON UNIT 52 AT TIME STEP 19, STRESS PERIOD   11
 UBUDSV SAVING "  STORAGE CHANGE" ON UNIT 52 AT TIME STEP 19, STRESS PERIOD   11
 UBDSV4 SAVING "           AG WE" ON UNIT  52 AT TIME STEP 19, STRESS PERIOD  11

 HEAD WILL BE SAVED ON UNIT   51 AT END OF TIME STEP   19, STRESS PERIOD   11
 
 SOLVING FOR HEAD 

    ------------------------------------------------
       NWT REQUIRED            1 OUTER ITERATIONS 
       AND A TOTAL OF          1 INNER ITERATIONS.
    ------------------------------------------------

 OUTPUT CONTROL FOR STRESS PERIOD   11   TIME STEP   20
    SAVE HEAD FOR ALL LAYERS
    SAVE BUDGET
 UBDSV1 SAVING "         STORAGE" ON UNIT  52 AT TIME STEP 20, STRESS PERIOD  11
 UBDSV2 SAVING "   CONSTANT HEAD" ON UNIT  52 AT TIME STEP 20, STRESS PERIOD  11
 UBDSV1 SAVING "FLOW RIGHT FACE " ON UNIT  52 AT TIME STEP 20, STRESS PERIOD  11
 UBDSV1 SAVING "FLOW FRONT FACE " ON UNIT  52 AT TIME STEP 20, STRESS PERIOD  11
 UBDSV4 SAVING "  STREAM LEAKAGE" ON UNIT  52 AT TIME STEP 20, STRESS PERIOD  11



 UBUDSV SAVING "           GW ET" ON UNIT 52 AT TIME STEP 20, STRESS PERIOD   11
 UBUDSV SAVING "    UZF RECHARGE" ON UNIT 52 AT TIME STEP 20, STRESS PERIOD   11
 UBUDSV SAVING " SURFACE LEAKAGE" ON UNIT 52 AT TIME STEP 20, STRESS PERIOD   11
 UBUDSV SAVING "       HORT+DUNN" ON UNIT 52 AT TIME STEP 20, STRESS PERIOD   11
 UBUDSV SAVING "  STORAGE CHANGE" ON UNIT 52 AT TIME STEP 20, STRESS PERIOD   11
 UBDSV4 SAVING "           AG WE" ON UNIT  52 AT TIME STEP 20, STRESS PERIOD  11

 HEAD WILL BE SAVED ON UNIT   51 AT END OF TIME STEP   20, STRESS PERIOD   11
 
 SOLVING FOR HEAD 

    ------------------------------------------------
       NWT REQUIRED            1 OUTER ITERATIONS 
       AND A TOTAL OF          1 INNER ITERATIONS.
    ------------------------------------------------

 OUTPUT CONTROL FOR STRESS PERIOD   11   TIME STEP   21
    SAVE HEAD FOR ALL LAYERS
    SAVE BUDGET
 UBDSV1 SAVING "         STORAGE" ON UNIT  52 AT TIME STEP 21, STRESS PERIOD  11
 UBDSV2 SAVING "   CONSTANT HEAD" ON UNIT  52 AT TIME STEP 21, STRESS PERIOD  11
 UBDSV1 SAVING "FLOW RIGHT FACE " ON UNIT  52 AT TIME STEP 21, STRESS PERIOD  11
 UBDSV1 SAVING "FLOW FRONT FACE " ON UNIT  52 AT TIME STEP 21, STRESS PERIOD  11
 UBDSV4 SAVING "  STREAM LEAKAGE" ON UNIT  52 AT TIME STEP 21, STRESS PERIOD  11



 UBUDSV SAVING "           GW ET" ON UNIT 52 AT TIME STEP 21, STRESS PERIOD   11
 UBUDSV SAVING "    UZF RECHARGE" ON UNIT 52 AT TIME STEP 21, STRESS PERIOD   11
 UBUDSV SAVING " SURFACE LEAKAGE" ON UNIT 52 AT TIME STEP 21, STRESS PERIOD   11
 UBUDSV SAVING "       HORT+DUNN" ON UNIT 52 AT TIME STEP 21, STRESS PERIOD   11
 UBUDSV SAVING "  STORAGE CHANGE" ON UNIT 52 AT TIME STEP 21, STRESS PERIOD   11
 UBDSV4 SAVING "           AG WE" ON UNIT  52 AT TIME STEP 21, STRESS PERIOD  11

 HEAD WILL BE SAVED ON UNIT   51 AT END OF TIME STEP   21, STRESS PERIOD   11
 
 SOLVING FOR HEAD 

    ------------------------------------------------
       NWT REQUIRED            1 OUTER ITERATIONS 
       AND A TOTAL OF          1 INNER ITERATIONS.
    ------------------------------------------------

 OUTPUT CONTROL FOR STRESS PERIOD   11   TIME STEP   22
    SAVE HEAD FOR ALL LAYERS
    SAVE BUDGET
 UBDSV1 SAVING "         STORAGE" ON UNIT  52 AT TIME STEP 22, STRESS PERIOD  11
 UBDSV2 SAVING "   CONSTANT HEAD" ON UNIT  52 AT TIME STEP 22, STRESS PERIOD  11
 UBDSV1 SAVING "FLOW RIGHT FACE " ON UNIT  52 AT TIME STEP 22, STRESS PERIOD  11
 UBDSV1 SAVING "FLOW FRONT FACE " ON UNIT  52 AT TIME STEP 22, STRESS PERIOD  11
 UBDSV4 SAVING "  STREAM LEAKAGE" ON UNIT  52 AT TIME STEP 22, STRESS PERIOD  11



 UBUDSV SAVING "           GW ET" ON UNIT 52 AT TIME STEP 22, STRESS PERIOD   11
 UBUDSV SAVING "    UZF RECHARGE" ON UNIT 52 AT TIME STEP 22, STRESS PERIOD   11
 UBUDSV SAVING " SURFACE LEAKAGE" ON UNIT 52 AT TIME STEP 22, STRESS PERIOD   11
 UBUDSV SAVING "       HORT+DUNN" ON UNIT 52 AT TIME STEP 22, STRESS PERIOD   11
 UBUDSV SAVING "  STORAGE CHANGE" ON UNIT 52 AT TIME STEP 22, STRESS PERIOD   11
 UBDSV4 SAVING "           AG WE" ON UNIT  52 AT TIME STEP 22, STRESS PERIOD  11

 HEAD WILL BE SAVED ON UNIT   51 AT END OF TIME STEP   22, STRESS PERIOD   11
 
 SOLVING FOR HEAD 

    ------------------------------------------------
       NWT REQUIRED            1 OUTER ITERATIONS 
       AND A TOTAL OF          1 INNER ITERATIONS.
    ------------------------------------------------

 OUTPUT CONTROL FOR STRESS PERIOD   11   TIME STEP   23
    SAVE HEAD FOR ALL LAYERS
    SAVE BUDGET
 UBDSV1 SAVING "         STORAGE" ON UNIT  52 AT TIME STEP 23, STRESS PERIOD  11
 UBDSV2 SAVING "   CONSTANT HEAD" ON UNIT  52 AT TIME STEP 23, STRESS PERIOD  11
 UBDSV1 SAVING "FLOW RIGHT FACE " ON UNIT  52 AT TIME STEP 23, STRESS PERIOD  11
 UBDSV1 SAVING "FLOW FRONT FACE " ON UNIT  52 AT TIME STEP 23, STRESS PERIOD  11
 UBDSV4 SAVING "  STREAM LEAKAGE" ON UNIT  52 AT TIME STEP 23, STRESS PERIOD  11



 UBUDSV SAVING "           GW ET" ON UNIT 52 AT TIME STEP 23, STRESS PERIOD   11
 UBUDSV SAVING "    UZF RECHARGE" ON UNIT 52 AT TIME STEP 23, STRESS PERIOD   11
 UBUDSV SAVING " SURFACE LEAKAGE" ON UNIT 52 AT TIME STEP 23, STRESS PERIOD   11
 UBUDSV SAVING "       HORT+DUNN" ON UNIT 52 AT TIME STEP 23, STRESS PERIOD   11
 UBUDSV SAVING "  STORAGE CHANGE" ON UNIT 52 AT TIME STEP 23, STRESS PERIOD   11
 UBDSV4 SAVING "           AG WE" ON UNIT  52 AT TIME STEP 23, STRESS PERIOD  11

 HEAD WILL BE SAVED ON UNIT   51 AT END OF TIME STEP   23, STRESS PERIOD   11
 
 SOLVING FOR HEAD 

    ------------------------------------------------
       NWT REQUIRED            1 OUTER ITERATIONS 
       AND A TOTAL OF          1 INNER ITERATIONS.
    ------------------------------------------------

 OUTPUT CONTROL FOR STRESS PERIOD   11   TIME STEP   24
    SAVE HEAD FOR ALL LAYERS
    SAVE BUDGET
 UBDSV1 SAVING "         STORAGE" ON UNIT  52 AT TIME STEP 24, STRESS PERIOD  11
 UBDSV2 SAVING "   CONSTANT HEAD" ON UNIT  52 AT TIME STEP 24, STRESS PERIOD  11
 UBDSV1 SAVING "FLOW RIGHT FACE " ON UNIT  52 AT TIME STEP 24, STRESS PERIOD  11
 UBDSV1 SAVING "FLOW FRONT FACE " ON UNIT  52 AT TIME STEP 24, STRESS PERIOD  11
 UBDSV4 SAVING "  STREAM LEAKAGE" ON UNIT  52 AT TIME STEP 24, STRESS PERIOD  11



 UBUDSV SAVING "           GW ET" ON UNIT 52 AT TIME STEP 24, STRESS PERIOD   11
 UBUDSV SAVING "    UZF RECHARGE" ON UNIT 52 AT TIME STEP 24, STRESS PERIOD   11
 UBUDSV SAVING " SURFACE LEAKAGE" ON UNIT 52 AT TIME STEP 24, STRESS PERIOD   11
 UBUDSV SAVING "       HORT+DUNN" ON UNIT 52 AT TIME STEP 24, STRESS PERIOD   11
 UBUDSV SAVING "  STORAGE CHANGE" ON UNIT 52 AT TIME STEP 24, STRESS PERIOD   11
 UBDSV4 SAVING "           AG WE" ON UNIT  52 AT TIME STEP 24, STRESS PERIOD  11

 HEAD WILL BE SAVED ON UNIT   51 AT END OF TIME STEP   24, STRESS PERIOD   11
 
 SOLVING FOR HEAD 

    ------------------------------------------------
       NWT REQUIRED            1 OUTER ITERATIONS 
       AND A TOTAL OF          1 INNER ITERATIONS.
    ------------------------------------------------

 OUTPUT CONTROL FOR STRESS PERIOD   11   TIME STEP   25
    SAVE HEAD FOR ALL LAYERS
    SAVE BUDGET
 UBDSV1 SAVING "         STORAGE" ON UNIT  52 AT TIME STEP 25, STRESS PERIOD  11
 UBDSV2 SAVING "   CONSTANT HEAD" ON UNIT  52 AT TIME STEP 25, STRESS PERIOD  11
 UBDSV1 SAVING "FLOW RIGHT FACE " ON UNIT  52 AT TIME STEP 25, STRESS PERIOD  11
 UBDSV1 SAVING "FLOW FRONT FACE " ON UNIT  52 AT TIME STEP 25, STRESS PERIOD  11
 UBDSV4 SAVING "  STREAM LEAKAGE" ON UNIT  52 AT TIME STEP 25, STRESS PERIOD  11



 UBUDSV SAVING "           GW ET" ON UNIT 52 AT TIME STEP 25, STRESS PERIOD   11
 UBUDSV SAVING "    UZF RECHARGE" ON UNIT 52 AT TIME STEP 25, STRESS PERIOD   11
 UBUDSV SAVING " SURFACE LEAKAGE" ON UNIT 52 AT TIME STEP 25, STRESS PERIOD   11
 UBUDSV SAVING "       HORT+DUNN" ON UNIT 52 AT TIME STEP 25, STRESS PERIOD   11
 UBUDSV SAVING "  STORAGE CHANGE" ON UNIT 52 AT TIME STEP 25, STRESS PERIOD   11
 UBDSV4 SAVING "           AG WE" ON UNIT  52 AT TIME STEP 25, STRESS PERIOD  11

 HEAD WILL BE SAVED ON UNIT   51 AT END OF TIME STEP   25, STRESS PERIOD   11
 
 SOLVING FOR HEAD 

    ------------------------------------------------
       NWT REQUIRED            1 OUTER ITERATIONS 
       AND A TOTAL OF          1 INNER ITERATIONS.
    ------------------------------------------------

 OUTPUT CONTROL FOR STRESS PERIOD   11   TIME STEP   26
    SAVE HEAD FOR ALL LAYERS
    SAVE BUDGET
 UBDSV1 SAVING "         STORAGE" ON UNIT  52 AT TIME STEP 26, STRESS PERIOD  11
 UBDSV2 SAVING "   CONSTANT HEAD" ON UNIT  52 AT TIME STEP 26, STRESS PERIOD  11
 UBDSV1 SAVING "FLOW RIGHT FACE " ON UNIT  52 AT TIME STEP 26, STRESS PERIOD  11
 UBDSV1 SAVING "FLOW FRONT FACE " ON UNIT  52 AT TIME STEP 26, STRESS PERIOD  11
 UBDSV4 SAVING "  STREAM LEAKAGE" ON UNIT  52 AT TIME STEP 26, STRESS PERIOD  11



 UBUDSV SAVING "           GW ET" ON UNIT 52 AT TIME STEP 26, STRESS PERIOD   11
 UBUDSV SAVING "    UZF RECHARGE" ON UNIT 52 AT TIME STEP 26, STRESS PERIOD   11
 UBUDSV SAVING " SURFACE LEAKAGE" ON UNIT 52 AT TIME STEP 26, STRESS PERIOD   11
 UBUDSV SAVING "       HORT+DUNN" ON UNIT 52 AT TIME STEP 26, STRESS PERIOD   11
 UBUDSV SAVING "  STORAGE CHANGE" ON UNIT 52 AT TIME STEP 26, STRESS PERIOD   11
 UBDSV4 SAVING "           AG WE" ON UNIT  52 AT TIME STEP 26, STRESS PERIOD  11

 HEAD WILL BE SAVED ON UNIT   51 AT END OF TIME STEP   26, STRESS PERIOD   11
 
 SOLVING FOR HEAD 

    ------------------------------------------------
       NWT REQUIRED            1 OUTER ITERATIONS 
       AND A TOTAL OF          1 INNER ITERATIONS.
    ------------------------------------------------

 OUTPUT CONTROL FOR STRESS PERIOD   11   TIME STEP   27
    SAVE HEAD FOR ALL LAYERS
    SAVE BUDGET
 UBDSV1 SAVING "         STORAGE" ON UNIT  52 AT TIME STEP 27, STRESS PERIOD  11
 UBDSV2 SAVING "   CONSTANT HEAD" ON UNIT  52 AT TIME STEP 27, STRESS PERIOD  11
 UBDSV1 SAVING "FLOW RIGHT FACE " ON UNIT  52 AT TIME STEP 27, STRESS PERIOD  11
 UBDSV1 SAVING "FLOW FRONT FACE " ON UNIT  52 AT TIME STEP 27, STRESS PERIOD  11
 UBDSV4 SAVING "  STREAM LEAKAGE" ON UNIT  52 AT TIME STEP 27, STRESS PERIOD  11



 UBUDSV SAVING "           GW ET" ON UNIT 52 AT TIME STEP 27, STRESS PERIOD   11
 UBUDSV SAVING "    UZF RECHARGE" ON UNIT 52 AT TIME STEP 27, STRESS PERIOD   11
 UBUDSV SAVING " SURFACE LEAKAGE" ON UNIT 52 AT TIME STEP 27, STRESS PERIOD   11
 UBUDSV SAVING "       HORT+DUNN" ON UNIT 52 AT TIME STEP 27, STRESS PERIOD   11
 UBUDSV SAVING "  STORAGE CHANGE" ON UNIT 52 AT TIME STEP 27, STRESS PERIOD   11
 UBDSV4 SAVING "           AG WE" ON UNIT  52 AT TIME STEP 27, STRESS PERIOD  11

 HEAD WILL BE SAVED ON UNIT   51 AT END OF TIME STEP   27, STRESS PERIOD   11
 
 SOLVING FOR HEAD 

    ------------------------------------------------
       NWT REQUIRED            1 OUTER ITERATIONS 
       AND A TOTAL OF          1 INNER ITERATIONS.
    ------------------------------------------------

 OUTPUT CONTROL FOR STRESS PERIOD   11   TIME STEP   28
    SAVE HEAD FOR ALL LAYERS
    SAVE BUDGET
 UBDSV1 SAVING "         STORAGE" ON UNIT  52 AT TIME STEP 28, STRESS PERIOD  11
 UBDSV2 SAVING "   CONSTANT HEAD" ON UNIT  52 AT TIME STEP 28, STRESS PERIOD  11
 UBDSV1 SAVING "FLOW RIGHT FACE " ON UNIT  52 AT TIME STEP 28, STRESS PERIOD  11
 UBDSV1 SAVING "FLOW FRONT FACE " ON UNIT  52 AT TIME STEP 28, STRESS PERIOD  11
 UBDSV4 SAVING "  STREAM LEAKAGE" ON UNIT  52 AT TIME STEP 28, STRESS PERIOD  11



 UBUDSV SAVING "           GW ET" ON UNIT 52 AT TIME STEP 28, STRESS PERIOD   11
 UBUDSV SAVING "    UZF RECHARGE" ON UNIT 52 AT TIME STEP 28, STRESS PERIOD   11
 UBUDSV SAVING " SURFACE LEAKAGE" ON UNIT 52 AT TIME STEP 28, STRESS PERIOD   11
 UBUDSV SAVING "       HORT+DUNN" ON UNIT 52 AT TIME STEP 28, STRESS PERIOD   11
 UBUDSV SAVING "  STORAGE CHANGE" ON UNIT 52 AT TIME STEP 28, STRESS PERIOD   11
 UBDSV4 SAVING "           AG WE" ON UNIT  52 AT TIME STEP 28, STRESS PERIOD  11

 HEAD WILL BE SAVED ON UNIT   51 AT END OF TIME STEP   28, STRESS PERIOD   11
 
 SOLVING FOR HEAD 

    ------------------------------------------------
       NWT REQUIRED            1 OUTER ITERATIONS 
       AND A TOTAL OF          1 INNER ITERATIONS.
    ------------------------------------------------

 OUTPUT CONTROL FOR STRESS PERIOD   11   TIME STEP   29
    SAVE HEAD FOR ALL LAYERS
    SAVE BUDGET
 UBDSV1 SAVING "         STORAGE" ON UNIT  52 AT TIME STEP 29, STRESS PERIOD  11
 UBDSV2 SAVING "   CONSTANT HEAD" ON UNIT  52 AT TIME STEP 29, STRESS PERIOD  11
 UBDSV1 SAVING "FLOW RIGHT FACE " ON UNIT  52 AT TIME STEP 29, STRESS PERIOD  11
 UBDSV1 SAVING "FLOW FRONT FACE " ON UNIT  52 AT TIME STEP 29, STRESS PERIOD  11
 UBDSV4 SAVING "  STREAM LEAKAGE" ON UNIT  52 AT TIME STEP 29, STRESS PERIOD  11



 UBUDSV SAVING "           GW ET" ON UNIT 52 AT TIME STEP 29, STRESS PERIOD   11
 UBUDSV SAVING "    UZF RECHARGE" ON UNIT 52 AT TIME STEP 29, STRESS PERIOD   11
 UBUDSV SAVING " SURFACE LEAKAGE" ON UNIT 52 AT TIME STEP 29, STRESS PERIOD   11
 UBUDSV SAVING "       HORT+DUNN" ON UNIT 52 AT TIME STEP 29, STRESS PERIOD   11
 UBUDSV SAVING "  STORAGE CHANGE" ON UNIT 52 AT TIME STEP 29, STRESS PERIOD   11
 UBDSV4 SAVING "           AG WE" ON UNIT  52 AT TIME STEP 29, STRESS PERIOD  11

 HEAD WILL BE SAVED ON UNIT   51 AT END OF TIME STEP   29, STRESS PERIOD   11
 
 SOLVING FOR HEAD 

    ------------------------------------------------
       NWT REQUIRED            1 OUTER ITERATIONS 
       AND A TOTAL OF          1 INNER ITERATIONS.
    ------------------------------------------------

 OUTPUT CONTROL FOR STRESS PERIOD   11   TIME STEP   30
    SAVE HEAD FOR ALL LAYERS
    SAVE BUDGET
 UBDSV1 SAVING "         STORAGE" ON UNIT  52 AT TIME STEP 30, STRESS PERIOD  11
 UBDSV2 SAVING "   CONSTANT HEAD" ON UNIT  52 AT TIME STEP 30, STRESS PERIOD  11
 UBDSV1 SAVING "FLOW RIGHT FACE " ON UNIT  52 AT TIME STEP 30, STRESS PERIOD  11
 UBDSV1 SAVING "FLOW FRONT FACE " ON UNIT  52 AT TIME STEP 30, STRESS PERIOD  11
 UBDSV4 SAVING "  STREAM LEAKAGE" ON UNIT  52 AT TIME STEP 30, STRESS PERIOD  11



 UBUDSV SAVING "           GW ET" ON UNIT 52 AT TIME STEP 30, STRESS PERIOD   11
 UBUDSV SAVING "    UZF RECHARGE" ON UNIT 52 AT TIME STEP 30, STRESS PERIOD   11
 UBUDSV SAVING " SURFACE LEAKAGE" ON UNIT 52 AT TIME STEP 30, STRESS PERIOD   11
 UBUDSV SAVING "       HORT+DUNN" ON UNIT 52 AT TIME STEP 30, STRESS PERIOD   11
 UBUDSV SAVING "  STORAGE CHANGE" ON UNIT 52 AT TIME STEP 30, STRESS PERIOD   11


UNSATURATED ZONE PACKAGE VOLUMETRIC BUDGET FOR  TIME STEP    30 STRESS PERIOD   11
  ------------------------------------------------------------------------------



     CUMULATIVE VOLUMES      L**3       RATES FOR THIS TIME STEP      L**3/T
     ------------------                 ------------------------

           IN:                                      IN:
           ---                                      ---
        INFILTRATION =      164148.3593          INFILTRATION =         685.7998

          OUT:                                     OUT:
          ----                                     ----
              UZF ET =      165789.1537                UZF ET =         270.9503
        UZF RECHARGE =       10274.9040          UZF RECHARGE =           5.9392

            IN - OUT =      -11915.6984              IN - OUT =         408.9102

          STORAGE:                                 STORAGE:
          --------                                 --------
      STORAGE CHANGE =      -11915.9644        STORAGE CHANGE =         408.9102

 PERCENT DISCREPANCY IS DIFFERENCE BETWEEN IN-OUT MINUS CHANGE IN STORAGE
 DIVIDED BY THE AVERAGE OF IN AND OUT TIMES 100

 PERCENT DISCREPANCY =           0.00     PERCENT DISCREPANCY =           0.00






 UBDSV4 SAVING "           AG WE" ON UNIT  52 AT TIME STEP 30, STRESS PERIOD  11
1
  VOLUMETRIC BUDGET FOR AGRICULTURAL FIELDS AT TIME STEP   30, STRESS PERIOD  11
  ------------------------------------------------------------------------------

     CUMULATIVE VOLUMES      L**3       RATES FOR THIS TIME STEP      L**3/T
     ------------------                 ------------------------

           IN:                                      IN:
           ---                                      ---
               AG WELLS  =        3212.4246                 AG WELLS  =           0.0000
      DIVERSION SEGMENTS =        5719.0513        DIVERSION SEGMENTS =           6.4488
           GW IRRIGATION =           0.0000             GW IRRIGATION =           0.0000
           SW IRRIGATION =           0.0000             SW IRRIGATION =           0.0000
        SYSTEM LOSSES GW =           0.0000          SYSTEM LOSSES GW =           0.0000
        SYSTEM LOSSES SW =           0.0000          SYSTEM LOSSES SW =           0.0000

                TOTAL IN =        8931.4756                  TOTAL IN =           6.4488

          OUT:                                     OUT:
          ----                                     ----
               AG WELLS  =           0.0000                 AG WELLS  =           0.0000
      DIVERSION SEGMENTS =           0.0000        DIVERSION SEGMENTS =           0.0000
           GW IRRIGATION =        3212.4246             GW IRRIGATION =           0.0000
           SW IRRIGATION =        5719.0513             SW IRRIGATION =           6.4488
        SYSTEM LOSSES GW =           0.0000          SYSTEM LOSSES GW =           0.0000
        SYSTEM LOSSES SW =           0.0000          SYSTEM LOSSES SW =           0.0000

               TOTAL OUT =        8931.4756                 TOTAL OUT =           6.4488

                IN - OUT =           0.0000                  IN - OUT =           0.0000

     PERCENT DISCREPANCY =           0.00         PERCENT DISCREPANCY =           0.00




 HEAD WILL BE SAVED ON UNIT   51 AT END OF TIME STEP   30, STRESS PERIOD   11
1
  VOLUMETRIC BUDGET FOR ENTIRE MODEL AT END OF TIME STEP   30, STRESS PERIOD  11
  ------------------------------------------------------------------------------

     CUMULATIVE VOLUMES      L**3       RATES FOR THIS TIME STEP      L**3/T
     ------------------                 ------------------------

           IN:                                      IN:
           ---                                      ---
             STORAGE     =         994.2090               STORAGE     =           0.0000
       CONSTANT HEAD     =           0.0000         CONSTANT HEAD     =           0.0000
      STREAM LEAKAGE     =          25.3917        STREAM LEAKAGE     =       7.6023E-02
        UZF RECHARGE     =       10274.9092          UZF RECHARGE     =           5.9392
               GW ET     =           0.0000                 GW ET     =           0.0000
     SURFACE LEAKAGE     =           0.0000       SURFACE LEAKAGE     =           0.0000
           AG WELLS      =           0.0000             AG WELLS      =           0.0000

                TOTAL IN =       11294.5098                  TOTAL IN =           6.0152

          OUT:                                     OUT:
          ----                                     ----
             STORAGE     =        7286.5781               STORAGE     =           5.7651
       CONSTANT HEAD     =           0.0000         CONSTANT HEAD     =           0.0000
      STREAM LEAKAGE     =           0.0000        STREAM LEAKAGE     =           0.0000
        UZF RECHARGE     =           0.0000          UZF RECHARGE     =           0.0000
               GW ET     =           0.0000                 GW ET     =           0.0000
     SURFACE LEAKAGE     =           0.0000       SURFACE LEAKAGE     =           0.0000
           AG WELLS      =        3212.4246             AG WELLS      =           0.0000

               TOTAL OUT =       10499.0029                 TOTAL OUT =           5.7651

                IN - OUT =         795.5068                  IN - OUT =           0.2502

     PERCENT DISCREPANCY =           7.30         PERCENT DISCREPANCY =           4.25






         TIME SUMMARY AT END OF TIME STEP   30 IN STRESS PERIOD   11
                    SECONDS     MINUTES      HOURS       DAYS        YEARS
                    -----------------------------------------------------------
   TIME STEP LENGTH  86400.      1440.0      24.000      1.0000     2.73785E-03
 STRESS PERIOD TIME 2.59200E+06  43200.      720.00      30.000     8.21355E-02
         TOTAL TIME 2.88576E+07 4.80960E+05  8016.0      334.00     0.91444    
1
1
                            STRESS PERIOD NO.   12, LENGTH =   31.00000    
                            -----------------------------------------------

                              NUMBER OF TIME STEPS =    31

                               MULTIPLIER FOR DELT =     1.000

                            INITIAL TIME STEP SIZE =   1.000000    



 CLASSIFICATION & COUNT OF STREAM SEGMENTS BASED ON SOURCE OF INFLOW:

                HEADWATER     DIVERSION     RECEIVES TRIBUTARY FLOW
                ---------     ---------     -----------------------
                     1              2               9



                    INPUT DATA FOR EACH STREAM SEGMENT
 ---------------------------------------------------------------------------------------------

 SEGMENT    SEG.     INFLOW   OVERLAND   STREAM    STREAM   ICALC  OUTFLOW  DIVERSION PRIORITY
    NO.    LENGTH     RATE     RUNOFF      ET       PPT.    METH.  TO SEG.  FROM SEG.    NO.

      1  1.000E+02 5.000E+01 0.000E+00 0.000E+00 0.000E+00    1        2        0        0
      2  1.000E+02 0.000E+00 0.000E+00 0.000E+00 0.000E+00    1        3        0        0
      3  1.000E+02 0.000E+00 0.000E+00 0.000E+00 0.000E+00    1        4        0        0
      4  1.000E+02 0.000E+00 0.000E+00 0.000E+00 0.000E+00    1        5        0        0
      5  1.000E+02 0.000E+00 0.000E+00 0.000E+00 0.000E+00    1        6        0        0
      6  1.000E+02 0.000E+00 0.000E+00 0.000E+00 0.000E+00    1        7        0        0
      7  1.000E+02 0.000E+00 0.000E+00 0.000E+00 0.000E+00    1        8        0        0
      8  1.000E+02 0.000E+00 0.000E+00 0.000E+00 0.000E+00    1        9        0        0
      9  1.000E+02 0.000E+00 0.000E+00 0.000E+00 0.000E+00    1       10        0        0
     10  1.000E+02 0.000E+00 0.000E+00 0.000E+00 0.000E+00    1        0        0        0
     11  1.000E+02 2.000E+01 0.000E+00 0.000E+00 0.000E+00    1        0        3        0
     12  1.000E+02 1.000E+01 0.000E+00 0.000E+00 0.000E+00    1        0        5        0


         STREAMBED PROPERTIES AND STREAM DIMENSIONS

 SEGMENT     BED HYD. COND.      BED THICKNESS     ELEV.-TOP OF BED     WIDTH OF STREAM     DEPTH OF STREAM    STREAM ROUGHNESS
    No.     UPPER     LOWER     UPPER     LOWER     UPPER     LOWER     UPPER     LOWER     UPPER     LOWER   CHANNEL      BANK

     1  1.500E-05 1.500E-05 5.000E-01 5.000E-01 9.900E+01 9.898E+01 5.000E+00 5.000E+00                     3.000E-02
     2  1.500E-05 1.500E-05 5.000E-01 5.000E-01 9.898E+01 9.896E+01 5.000E+00 5.000E+00                     3.000E-02
     3  1.500E-05 1.500E-05 5.000E-01 5.000E-01 9.896E+01 9.894E+01 5.000E+00 5.000E+00                     3.000E-02
     4  1.500E-05 1.500E-05 5.000E-01 5.000E-01 9.894E+01 9.892E+01 5.000E+00 5.000E+00                     3.000E-02
     5  1.500E-05 1.500E-05 5.000E-01 5.000E-01 9.892E+01 9.890E+01 5.000E+00 5.000E+00                     3.000E-02
     6  1.500E-05 1.500E-05 5.000E-01 5.000E-01 9.890E+01 9.888E+01 5.000E+00 5.000E+00                     3.000E-02
     7  1.500E-05 1.500E-05 5.000E-01 5.000E-01 9.888E+01 9.886E+01 5.000E+00 5.000E+00                     3.000E-02
     8  1.500E-05 1.500E-05 5.000E-01 5.000E-01 9.886E+01 9.884E+01 5.000E+00 5.000E+00                     3.000E-02
     9  1.500E-05 1.500E-05 5.000E-01 5.000E-01 9.884E+01 9.882E+01 5.000E+00 5.000E+00                     3.000E-02
    10  1.500E-05 1.500E-05 5.000E-01 5.000E-01 9.882E+01 9.880E+01 5.000E+00 5.000E+00                     3.000E-02
    11  1.500E-05 1.500E-05 5.000E-01 5.000E-01 9.894E+01 9.892E+01 5.000E+00 5.000E+00                     3.000E-02
    12  1.500E-05 1.500E-05 5.000E-01 5.000E-01 9.890E+01 9.888E+01 5.000E+00 5.000E+00                     3.000E-02






            AREAL INFILTRATION RATE
 READING ON UNIT   19 WITH FORMAT: (10E15.6)           



                            ET RATE
 READING ON UNIT   19 WITH FORMAT: (10E15.6)           



                ET EXTINCTION DEPTH
 READING ON UNIT   19 WITH FORMAT: (10E15.6)           



           EXTINCTION WATER CONTENT
 READING ON UNIT   19 WITH FORMAT: (10E15.6)           

 PROCESSING AG STRESS PERIOD DATA

 READING AG STRESS PERIOD DATA

 READING IRRIGATION SEGMENT

 READING IRRIGATION WELL

 READING SUPPLEMENTAL WELL

 END PROCESSING AG STRESS PERIOD DATA OPTIONS
 
 SOLVING FOR HEAD 

    ------------------------------------------------
       NWT REQUIRED            1 OUTER ITERATIONS 
       AND A TOTAL OF          1 INNER ITERATIONS.
    ------------------------------------------------

 OUTPUT CONTROL FOR STRESS PERIOD   12   TIME STEP    1
    SAVE HEAD FOR ALL LAYERS
    SAVE BUDGET
 UBDSV1 SAVING "         STORAGE" ON UNIT  52 AT TIME STEP  1, STRESS PERIOD  12
 UBDSV2 SAVING "   CONSTANT HEAD" ON UNIT  52 AT TIME STEP  1, STRESS PERIOD  12
 UBDSV1 SAVING "FLOW RIGHT FACE " ON UNIT  52 AT TIME STEP  1, STRESS PERIOD  12
 UBDSV1 SAVING "FLOW FRONT FACE " ON UNIT  52 AT TIME STEP  1, STRESS PERIOD  12
 UBDSV4 SAVING "  STREAM LEAKAGE" ON UNIT  52 AT TIME STEP  1, STRESS PERIOD  12



 UBUDSV SAVING "           GW ET" ON UNIT 52 AT TIME STEP  1, STRESS PERIOD   12
 UBUDSV SAVING "    UZF RECHARGE" ON UNIT 52 AT TIME STEP  1, STRESS PERIOD   12
 UBUDSV SAVING " SURFACE LEAKAGE" ON UNIT 52 AT TIME STEP  1, STRESS PERIOD   12
 UBUDSV SAVING "       HORT+DUNN" ON UNIT 52 AT TIME STEP  1, STRESS PERIOD   12
 UBUDSV SAVING "  STORAGE CHANGE" ON UNIT 52 AT TIME STEP  1, STRESS PERIOD   12
 UBDSV4 SAVING "           AG WE" ON UNIT  52 AT TIME STEP  1, STRESS PERIOD  12

 HEAD WILL BE SAVED ON UNIT   51 AT END OF TIME STEP    1, STRESS PERIOD   12
 
 SOLVING FOR HEAD 

    ------------------------------------------------
       NWT REQUIRED            1 OUTER ITERATIONS 
       AND A TOTAL OF          1 INNER ITERATIONS.
    ------------------------------------------------

 OUTPUT CONTROL FOR STRESS PERIOD   12   TIME STEP    2
    SAVE HEAD FOR ALL LAYERS
    SAVE BUDGET
 UBDSV1 SAVING "         STORAGE" ON UNIT  52 AT TIME STEP  2, STRESS PERIOD  12
 UBDSV2 SAVING "   CONSTANT HEAD" ON UNIT  52 AT TIME STEP  2, STRESS PERIOD  12
 UBDSV1 SAVING "FLOW RIGHT FACE " ON UNIT  52 AT TIME STEP  2, STRESS PERIOD  12
 UBDSV1 SAVING "FLOW FRONT FACE " ON UNIT  52 AT TIME STEP  2, STRESS PERIOD  12
 UBDSV4 SAVING "  STREAM LEAKAGE" ON UNIT  52 AT TIME STEP  2, STRESS PERIOD  12



 UBUDSV SAVING "           GW ET" ON UNIT 52 AT TIME STEP  2, STRESS PERIOD   12
 UBUDSV SAVING "    UZF RECHARGE" ON UNIT 52 AT TIME STEP  2, STRESS PERIOD   12
 UBUDSV SAVING " SURFACE LEAKAGE" ON UNIT 52 AT TIME STEP  2, STRESS PERIOD   12
 UBUDSV SAVING "       HORT+DUNN" ON UNIT 52 AT TIME STEP  2, STRESS PERIOD   12
 UBUDSV SAVING "  STORAGE CHANGE" ON UNIT 52 AT TIME STEP  2, STRESS PERIOD   12
 UBDSV4 SAVING "           AG WE" ON UNIT  52 AT TIME STEP  2, STRESS PERIOD  12

 HEAD WILL BE SAVED ON UNIT   51 AT END OF TIME STEP    2, STRESS PERIOD   12
 
 SOLVING FOR HEAD 

    ------------------------------------------------
       NWT REQUIRED            1 OUTER ITERATIONS 
       AND A TOTAL OF          1 INNER ITERATIONS.
    ------------------------------------------------

 OUTPUT CONTROL FOR STRESS PERIOD   12   TIME STEP    3
    SAVE HEAD FOR ALL LAYERS
    SAVE BUDGET
 UBDSV1 SAVING "         STORAGE" ON UNIT  52 AT TIME STEP  3, STRESS PERIOD  12
 UBDSV2 SAVING "   CONSTANT HEAD" ON UNIT  52 AT TIME STEP  3, STRESS PERIOD  12
 UBDSV1 SAVING "FLOW RIGHT FACE " ON UNIT  52 AT TIME STEP  3, STRESS PERIOD  12
 UBDSV1 SAVING "FLOW FRONT FACE " ON UNIT  52 AT TIME STEP  3, STRESS PERIOD  12
 UBDSV4 SAVING "  STREAM LEAKAGE" ON UNIT  52 AT TIME STEP  3, STRESS PERIOD  12



 UBUDSV SAVING "           GW ET" ON UNIT 52 AT TIME STEP  3, STRESS PERIOD   12
 UBUDSV SAVING "    UZF RECHARGE" ON UNIT 52 AT TIME STEP  3, STRESS PERIOD   12
 UBUDSV SAVING " SURFACE LEAKAGE" ON UNIT 52 AT TIME STEP  3, STRESS PERIOD   12
 UBUDSV SAVING "       HORT+DUNN" ON UNIT 52 AT TIME STEP  3, STRESS PERIOD   12
 UBUDSV SAVING "  STORAGE CHANGE" ON UNIT 52 AT TIME STEP  3, STRESS PERIOD   12
 UBDSV4 SAVING "           AG WE" ON UNIT  52 AT TIME STEP  3, STRESS PERIOD  12

 HEAD WILL BE SAVED ON UNIT   51 AT END OF TIME STEP    3, STRESS PERIOD   12
 
 SOLVING FOR HEAD 

    ------------------------------------------------
       NWT REQUIRED            1 OUTER ITERATIONS 
       AND A TOTAL OF          1 INNER ITERATIONS.
    ------------------------------------------------

 OUTPUT CONTROL FOR STRESS PERIOD   12   TIME STEP    4
    SAVE HEAD FOR ALL LAYERS
    SAVE BUDGET
 UBDSV1 SAVING "         STORAGE" ON UNIT  52 AT TIME STEP  4, STRESS PERIOD  12
 UBDSV2 SAVING "   CONSTANT HEAD" ON UNIT  52 AT TIME STEP  4, STRESS PERIOD  12
 UBDSV1 SAVING "FLOW RIGHT FACE " ON UNIT  52 AT TIME STEP  4, STRESS PERIOD  12
 UBDSV1 SAVING "FLOW FRONT FACE " ON UNIT  52 AT TIME STEP  4, STRESS PERIOD  12
 UBDSV4 SAVING "  STREAM LEAKAGE" ON UNIT  52 AT TIME STEP  4, STRESS PERIOD  12



 UBUDSV SAVING "           GW ET" ON UNIT 52 AT TIME STEP  4, STRESS PERIOD   12
 UBUDSV SAVING "    UZF RECHARGE" ON UNIT 52 AT TIME STEP  4, STRESS PERIOD   12
 UBUDSV SAVING " SURFACE LEAKAGE" ON UNIT 52 AT TIME STEP  4, STRESS PERIOD   12
 UBUDSV SAVING "       HORT+DUNN" ON UNIT 52 AT TIME STEP  4, STRESS PERIOD   12
 UBUDSV SAVING "  STORAGE CHANGE" ON UNIT 52 AT TIME STEP  4, STRESS PERIOD   12
 UBDSV4 SAVING "           AG WE" ON UNIT  52 AT TIME STEP  4, STRESS PERIOD  12

 HEAD WILL BE SAVED ON UNIT   51 AT END OF TIME STEP    4, STRESS PERIOD   12
 
 SOLVING FOR HEAD 

    ------------------------------------------------
       NWT REQUIRED            1 OUTER ITERATIONS 
       AND A TOTAL OF          1 INNER ITERATIONS.
    ------------------------------------------------

 OUTPUT CONTROL FOR STRESS PERIOD   12   TIME STEP    5
    SAVE HEAD FOR ALL LAYERS
    SAVE BUDGET
 UBDSV1 SAVING "         STORAGE" ON UNIT  52 AT TIME STEP  5, STRESS PERIOD  12
 UBDSV2 SAVING "   CONSTANT HEAD" ON UNIT  52 AT TIME STEP  5, STRESS PERIOD  12
 UBDSV1 SAVING "FLOW RIGHT FACE " ON UNIT  52 AT TIME STEP  5, STRESS PERIOD  12
 UBDSV1 SAVING "FLOW FRONT FACE " ON UNIT  52 AT TIME STEP  5, STRESS PERIOD  12
 UBDSV4 SAVING "  STREAM LEAKAGE" ON UNIT  52 AT TIME STEP  5, STRESS PERIOD  12



 UBUDSV SAVING "           GW ET" ON UNIT 52 AT TIME STEP  5, STRESS PERIOD   12
 UBUDSV SAVING "    UZF RECHARGE" ON UNIT 52 AT TIME STEP  5, STRESS PERIOD   12
 UBUDSV SAVING " SURFACE LEAKAGE" ON UNIT 52 AT TIME STEP  5, STRESS PERIOD   12
 UBUDSV SAVING "       HORT+DUNN" ON UNIT 52 AT TIME STEP  5, STRESS PERIOD   12
 UBUDSV SAVING "  STORAGE CHANGE" ON UNIT 52 AT TIME STEP  5, STRESS PERIOD   12
 UBDSV4 SAVING "           AG WE" ON UNIT  52 AT TIME STEP  5, STRESS PERIOD  12

 HEAD WILL BE SAVED ON UNIT   51 AT END OF TIME STEP    5, STRESS PERIOD   12
 
 SOLVING FOR HEAD 

    ------------------------------------------------
       NWT REQUIRED            1 OUTER ITERATIONS 
       AND A TOTAL OF          1 INNER ITERATIONS.
    ------------------------------------------------

 OUTPUT CONTROL FOR STRESS PERIOD   12   TIME STEP    6
    SAVE HEAD FOR ALL LAYERS
    SAVE BUDGET
 UBDSV1 SAVING "         STORAGE" ON UNIT  52 AT TIME STEP  6, STRESS PERIOD  12
 UBDSV2 SAVING "   CONSTANT HEAD" ON UNIT  52 AT TIME STEP  6, STRESS PERIOD  12
 UBDSV1 SAVING "FLOW RIGHT FACE " ON UNIT  52 AT TIME STEP  6, STRESS PERIOD  12
 UBDSV1 SAVING "FLOW FRONT FACE " ON UNIT  52 AT TIME STEP  6, STRESS PERIOD  12
 UBDSV4 SAVING "  STREAM LEAKAGE" ON UNIT  52 AT TIME STEP  6, STRESS PERIOD  12



 UBUDSV SAVING "           GW ET" ON UNIT 52 AT TIME STEP  6, STRESS PERIOD   12
 UBUDSV SAVING "    UZF RECHARGE" ON UNIT 52 AT TIME STEP  6, STRESS PERIOD   12
 UBUDSV SAVING " SURFACE LEAKAGE" ON UNIT 52 AT TIME STEP  6, STRESS PERIOD   12
 UBUDSV SAVING "       HORT+DUNN" ON UNIT 52 AT TIME STEP  6, STRESS PERIOD   12
 UBUDSV SAVING "  STORAGE CHANGE" ON UNIT 52 AT TIME STEP  6, STRESS PERIOD   12
 UBDSV4 SAVING "           AG WE" ON UNIT  52 AT TIME STEP  6, STRESS PERIOD  12

 HEAD WILL BE SAVED ON UNIT   51 AT END OF TIME STEP    6, STRESS PERIOD   12
 
 SOLVING FOR HEAD 

    ------------------------------------------------
       NWT REQUIRED            1 OUTER ITERATIONS 
       AND A TOTAL OF          1 INNER ITERATIONS.
    ------------------------------------------------

 OUTPUT CONTROL FOR STRESS PERIOD   12   TIME STEP    7
    SAVE HEAD FOR ALL LAYERS
    SAVE BUDGET
 UBDSV1 SAVING "         STORAGE" ON UNIT  52 AT TIME STEP  7, STRESS PERIOD  12
 UBDSV2 SAVING "   CONSTANT HEAD" ON UNIT  52 AT TIME STEP  7, STRESS PERIOD  12
 UBDSV1 SAVING "FLOW RIGHT FACE " ON UNIT  52 AT TIME STEP  7, STRESS PERIOD  12
 UBDSV1 SAVING "FLOW FRONT FACE " ON UNIT  52 AT TIME STEP  7, STRESS PERIOD  12
 UBDSV4 SAVING "  STREAM LEAKAGE" ON UNIT  52 AT TIME STEP  7, STRESS PERIOD  12



 UBUDSV SAVING "           GW ET" ON UNIT 52 AT TIME STEP  7, STRESS PERIOD   12
 UBUDSV SAVING "    UZF RECHARGE" ON UNIT 52 AT TIME STEP  7, STRESS PERIOD   12
 UBUDSV SAVING " SURFACE LEAKAGE" ON UNIT 52 AT TIME STEP  7, STRESS PERIOD   12
 UBUDSV SAVING "       HORT+DUNN" ON UNIT 52 AT TIME STEP  7, STRESS PERIOD   12
 UBUDSV SAVING "  STORAGE CHANGE" ON UNIT 52 AT TIME STEP  7, STRESS PERIOD   12
 UBDSV4 SAVING "           AG WE" ON UNIT  52 AT TIME STEP  7, STRESS PERIOD  12

 HEAD WILL BE SAVED ON UNIT   51 AT END OF TIME STEP    7, STRESS PERIOD   12
 
 SOLVING FOR HEAD 

    ------------------------------------------------
       NWT REQUIRED            1 OUTER ITERATIONS 
       AND A TOTAL OF          1 INNER ITERATIONS.
    ------------------------------------------------

 OUTPUT CONTROL FOR STRESS PERIOD   12   TIME STEP    8
    SAVE HEAD FOR ALL LAYERS
    SAVE BUDGET
 UBDSV1 SAVING "         STORAGE" ON UNIT  52 AT TIME STEP  8, STRESS PERIOD  12
 UBDSV2 SAVING "   CONSTANT HEAD" ON UNIT  52 AT TIME STEP  8, STRESS PERIOD  12
 UBDSV1 SAVING "FLOW RIGHT FACE " ON UNIT  52 AT TIME STEP  8, STRESS PERIOD  12
 UBDSV1 SAVING "FLOW FRONT FACE " ON UNIT  52 AT TIME STEP  8, STRESS PERIOD  12
 UBDSV4 SAVING "  STREAM LEAKAGE" ON UNIT  52 AT TIME STEP  8, STRESS PERIOD  12



 UBUDSV SAVING "           GW ET" ON UNIT 52 AT TIME STEP  8, STRESS PERIOD   12
 UBUDSV SAVING "    UZF RECHARGE" ON UNIT 52 AT TIME STEP  8, STRESS PERIOD   12
 UBUDSV SAVING " SURFACE LEAKAGE" ON UNIT 52 AT TIME STEP  8, STRESS PERIOD   12
 UBUDSV SAVING "       HORT+DUNN" ON UNIT 52 AT TIME STEP  8, STRESS PERIOD   12
 UBUDSV SAVING "  STORAGE CHANGE" ON UNIT 52 AT TIME STEP  8, STRESS PERIOD   12
 UBDSV4 SAVING "           AG WE" ON UNIT  52 AT TIME STEP  8, STRESS PERIOD  12

 HEAD WILL BE SAVED ON UNIT   51 AT END OF TIME STEP    8, STRESS PERIOD   12
 
 SOLVING FOR HEAD 

    ------------------------------------------------
       NWT REQUIRED            1 OUTER ITERATIONS 
       AND A TOTAL OF          1 INNER ITERATIONS.
    ------------------------------------------------

 OUTPUT CONTROL FOR STRESS PERIOD   12   TIME STEP    9
    SAVE HEAD FOR ALL LAYERS
    SAVE BUDGET
 UBDSV1 SAVING "         STORAGE" ON UNIT  52 AT TIME STEP  9, STRESS PERIOD  12
 UBDSV2 SAVING "   CONSTANT HEAD" ON UNIT  52 AT TIME STEP  9, STRESS PERIOD  12
 UBDSV1 SAVING "FLOW RIGHT FACE " ON UNIT  52 AT TIME STEP  9, STRESS PERIOD  12
 UBDSV1 SAVING "FLOW FRONT FACE " ON UNIT  52 AT TIME STEP  9, STRESS PERIOD  12
 UBDSV4 SAVING "  STREAM LEAKAGE" ON UNIT  52 AT TIME STEP  9, STRESS PERIOD  12



 UBUDSV SAVING "           GW ET" ON UNIT 52 AT TIME STEP  9, STRESS PERIOD   12
 UBUDSV SAVING "    UZF RECHARGE" ON UNIT 52 AT TIME STEP  9, STRESS PERIOD   12
 UBUDSV SAVING " SURFACE LEAKAGE" ON UNIT 52 AT TIME STEP  9, STRESS PERIOD   12
 UBUDSV SAVING "       HORT+DUNN" ON UNIT 52 AT TIME STEP  9, STRESS PERIOD   12
 UBUDSV SAVING "  STORAGE CHANGE" ON UNIT 52 AT TIME STEP  9, STRESS PERIOD   12
 UBDSV4 SAVING "           AG WE" ON UNIT  52 AT TIME STEP  9, STRESS PERIOD  12

 HEAD WILL BE SAVED ON UNIT   51 AT END OF TIME STEP    9, STRESS PERIOD   12
 
 SOLVING FOR HEAD 

    ------------------------------------------------
       NWT REQUIRED            1 OUTER ITERATIONS 
       AND A TOTAL OF          1 INNER ITERATIONS.
    ------------------------------------------------

 OUTPUT CONTROL FOR STRESS PERIOD   12   TIME STEP   10
    SAVE HEAD FOR ALL LAYERS
    SAVE BUDGET
 UBDSV1 SAVING "         STORAGE" ON UNIT  52 AT TIME STEP 10, STRESS PERIOD  12
 UBDSV2 SAVING "   CONSTANT HEAD" ON UNIT  52 AT TIME STEP 10, STRESS PERIOD  12
 UBDSV1 SAVING "FLOW RIGHT FACE " ON UNIT  52 AT TIME STEP 10, STRESS PERIOD  12
 UBDSV1 SAVING "FLOW FRONT FACE " ON UNIT  52 AT TIME STEP 10, STRESS PERIOD  12
 UBDSV4 SAVING "  STREAM LEAKAGE" ON UNIT  52 AT TIME STEP 10, STRESS PERIOD  12



 UBUDSV SAVING "           GW ET" ON UNIT 52 AT TIME STEP 10, STRESS PERIOD   12
 UBUDSV SAVING "    UZF RECHARGE" ON UNIT 52 AT TIME STEP 10, STRESS PERIOD   12
 UBUDSV SAVING " SURFACE LEAKAGE" ON UNIT 52 AT TIME STEP 10, STRESS PERIOD   12
 UBUDSV SAVING "       HORT+DUNN" ON UNIT 52 AT TIME STEP 10, STRESS PERIOD   12
 UBUDSV SAVING "  STORAGE CHANGE" ON UNIT 52 AT TIME STEP 10, STRESS PERIOD   12
 UBDSV4 SAVING "           AG WE" ON UNIT  52 AT TIME STEP 10, STRESS PERIOD  12

 HEAD WILL BE SAVED ON UNIT   51 AT END OF TIME STEP   10, STRESS PERIOD   12
 
 SOLVING FOR HEAD 

    ------------------------------------------------
       NWT REQUIRED            1 OUTER ITERATIONS 
       AND A TOTAL OF          1 INNER ITERATIONS.
    ------------------------------------------------

 OUTPUT CONTROL FOR STRESS PERIOD   12   TIME STEP   11
    SAVE HEAD FOR ALL LAYERS
    SAVE BUDGET
 UBDSV1 SAVING "         STORAGE" ON UNIT  52 AT TIME STEP 11, STRESS PERIOD  12
 UBDSV2 SAVING "   CONSTANT HEAD" ON UNIT  52 AT TIME STEP 11, STRESS PERIOD  12
 UBDSV1 SAVING "FLOW RIGHT FACE " ON UNIT  52 AT TIME STEP 11, STRESS PERIOD  12
 UBDSV1 SAVING "FLOW FRONT FACE " ON UNIT  52 AT TIME STEP 11, STRESS PERIOD  12
 UBDSV4 SAVING "  STREAM LEAKAGE" ON UNIT  52 AT TIME STEP 11, STRESS PERIOD  12



 UBUDSV SAVING "           GW ET" ON UNIT 52 AT TIME STEP 11, STRESS PERIOD   12
 UBUDSV SAVING "    UZF RECHARGE" ON UNIT 52 AT TIME STEP 11, STRESS PERIOD   12
 UBUDSV SAVING " SURFACE LEAKAGE" ON UNIT 52 AT TIME STEP 11, STRESS PERIOD   12
 UBUDSV SAVING "       HORT+DUNN" ON UNIT 52 AT TIME STEP 11, STRESS PERIOD   12
 UBUDSV SAVING "  STORAGE CHANGE" ON UNIT 52 AT TIME STEP 11, STRESS PERIOD   12
 UBDSV4 SAVING "           AG WE" ON UNIT  52 AT TIME STEP 11, STRESS PERIOD  12

 HEAD WILL BE SAVED ON UNIT   51 AT END OF TIME STEP   11, STRESS PERIOD   12
 
 SOLVING FOR HEAD 

    ------------------------------------------------
       NWT REQUIRED            1 OUTER ITERATIONS 
       AND A TOTAL OF          1 INNER ITERATIONS.
    ------------------------------------------------

 OUTPUT CONTROL FOR STRESS PERIOD   12   TIME STEP   12
    SAVE HEAD FOR ALL LAYERS
    SAVE BUDGET
 UBDSV1 SAVING "         STORAGE" ON UNIT  52 AT TIME STEP 12, STRESS PERIOD  12
 UBDSV2 SAVING "   CONSTANT HEAD" ON UNIT  52 AT TIME STEP 12, STRESS PERIOD  12
 UBDSV1 SAVING "FLOW RIGHT FACE " ON UNIT  52 AT TIME STEP 12, STRESS PERIOD  12
 UBDSV1 SAVING "FLOW FRONT FACE " ON UNIT  52 AT TIME STEP 12, STRESS PERIOD  12
 UBDSV4 SAVING "  STREAM LEAKAGE" ON UNIT  52 AT TIME STEP 12, STRESS PERIOD  12



 UBUDSV SAVING "           GW ET" ON UNIT 52 AT TIME STEP 12, STRESS PERIOD   12
 UBUDSV SAVING "    UZF RECHARGE" ON UNIT 52 AT TIME STEP 12, STRESS PERIOD   12
 UBUDSV SAVING " SURFACE LEAKAGE" ON UNIT 52 AT TIME STEP 12, STRESS PERIOD   12
 UBUDSV SAVING "       HORT+DUNN" ON UNIT 52 AT TIME STEP 12, STRESS PERIOD   12
 UBUDSV SAVING "  STORAGE CHANGE" ON UNIT 52 AT TIME STEP 12, STRESS PERIOD   12
 UBDSV4 SAVING "           AG WE" ON UNIT  52 AT TIME STEP 12, STRESS PERIOD  12

 HEAD WILL BE SAVED ON UNIT   51 AT END OF TIME STEP   12, STRESS PERIOD   12
 
 SOLVING FOR HEAD 

    ------------------------------------------------
       NWT REQUIRED            1 OUTER ITERATIONS 
       AND A TOTAL OF          1 INNER ITERATIONS.
    ------------------------------------------------

 OUTPUT CONTROL FOR STRESS PERIOD   12   TIME STEP   13
    SAVE HEAD FOR ALL LAYERS
    SAVE BUDGET
 UBDSV1 SAVING "         STORAGE" ON UNIT  52 AT TIME STEP 13, STRESS PERIOD  12
 UBDSV2 SAVING "   CONSTANT HEAD" ON UNIT  52 AT TIME STEP 13, STRESS PERIOD  12
 UBDSV1 SAVING "FLOW RIGHT FACE " ON UNIT  52 AT TIME STEP 13, STRESS PERIOD  12
 UBDSV1 SAVING "FLOW FRONT FACE " ON UNIT  52 AT TIME STEP 13, STRESS PERIOD  12
 UBDSV4 SAVING "  STREAM LEAKAGE" ON UNIT  52 AT TIME STEP 13, STRESS PERIOD  12



 UBUDSV SAVING "           GW ET" ON UNIT 52 AT TIME STEP 13, STRESS PERIOD   12
 UBUDSV SAVING "    UZF RECHARGE" ON UNIT 52 AT TIME STEP 13, STRESS PERIOD   12
 UBUDSV SAVING " SURFACE LEAKAGE" ON UNIT 52 AT TIME STEP 13, STRESS PERIOD   12
 UBUDSV SAVING "       HORT+DUNN" ON UNIT 52 AT TIME STEP 13, STRESS PERIOD   12
 UBUDSV SAVING "  STORAGE CHANGE" ON UNIT 52 AT TIME STEP 13, STRESS PERIOD   12
 UBDSV4 SAVING "           AG WE" ON UNIT  52 AT TIME STEP 13, STRESS PERIOD  12

 HEAD WILL BE SAVED ON UNIT   51 AT END OF TIME STEP   13, STRESS PERIOD   12
 
 SOLVING FOR HEAD 

    ------------------------------------------------
       NWT REQUIRED            1 OUTER ITERATIONS 
       AND A TOTAL OF          1 INNER ITERATIONS.
    ------------------------------------------------

 OUTPUT CONTROL FOR STRESS PERIOD   12   TIME STEP   14
    SAVE HEAD FOR ALL LAYERS
    SAVE BUDGET
 UBDSV1 SAVING "         STORAGE" ON UNIT  52 AT TIME STEP 14, STRESS PERIOD  12
 UBDSV2 SAVING "   CONSTANT HEAD" ON UNIT  52 AT TIME STEP 14, STRESS PERIOD  12
 UBDSV1 SAVING "FLOW RIGHT FACE " ON UNIT  52 AT TIME STEP 14, STRESS PERIOD  12
 UBDSV1 SAVING "FLOW FRONT FACE " ON UNIT  52 AT TIME STEP 14, STRESS PERIOD  12
 UBDSV4 SAVING "  STREAM LEAKAGE" ON UNIT  52 AT TIME STEP 14, STRESS PERIOD  12



 UBUDSV SAVING "           GW ET" ON UNIT 52 AT TIME STEP 14, STRESS PERIOD   12
 UBUDSV SAVING "    UZF RECHARGE" ON UNIT 52 AT TIME STEP 14, STRESS PERIOD   12
 UBUDSV SAVING " SURFACE LEAKAGE" ON UNIT 52 AT TIME STEP 14, STRESS PERIOD   12
 UBUDSV SAVING "       HORT+DUNN" ON UNIT 52 AT TIME STEP 14, STRESS PERIOD   12
 UBUDSV SAVING "  STORAGE CHANGE" ON UNIT 52 AT TIME STEP 14, STRESS PERIOD   12
 UBDSV4 SAVING "           AG WE" ON UNIT  52 AT TIME STEP 14, STRESS PERIOD  12

 HEAD WILL BE SAVED ON UNIT   51 AT END OF TIME STEP   14, STRESS PERIOD   12
 
 SOLVING FOR HEAD 

    ------------------------------------------------
       NWT REQUIRED            1 OUTER ITERATIONS 
       AND A TOTAL OF          1 INNER ITERATIONS.
    ------------------------------------------------

 OUTPUT CONTROL FOR STRESS PERIOD   12   TIME STEP   15
    SAVE HEAD FOR ALL LAYERS
    SAVE BUDGET
 UBDSV1 SAVING "         STORAGE" ON UNIT  52 AT TIME STEP 15, STRESS PERIOD  12
 UBDSV2 SAVING "   CONSTANT HEAD" ON UNIT  52 AT TIME STEP 15, STRESS PERIOD  12
 UBDSV1 SAVING "FLOW RIGHT FACE " ON UNIT  52 AT TIME STEP 15, STRESS PERIOD  12
 UBDSV1 SAVING "FLOW FRONT FACE " ON UNIT  52 AT TIME STEP 15, STRESS PERIOD  12
 UBDSV4 SAVING "  STREAM LEAKAGE" ON UNIT  52 AT TIME STEP 15, STRESS PERIOD  12



 UBUDSV SAVING "           GW ET" ON UNIT 52 AT TIME STEP 15, STRESS PERIOD   12
 UBUDSV SAVING "    UZF RECHARGE" ON UNIT 52 AT TIME STEP 15, STRESS PERIOD   12
 UBUDSV SAVING " SURFACE LEAKAGE" ON UNIT 52 AT TIME STEP 15, STRESS PERIOD   12
 UBUDSV SAVING "       HORT+DUNN" ON UNIT 52 AT TIME STEP 15, STRESS PERIOD   12
 UBUDSV SAVING "  STORAGE CHANGE" ON UNIT 52 AT TIME STEP 15, STRESS PERIOD   12
 UBDSV4 SAVING "           AG WE" ON UNIT  52 AT TIME STEP 15, STRESS PERIOD  12

 HEAD WILL BE SAVED ON UNIT   51 AT END OF TIME STEP   15, STRESS PERIOD   12
 
 SOLVING FOR HEAD 

    ------------------------------------------------
       NWT REQUIRED            1 OUTER ITERATIONS 
       AND A TOTAL OF          1 INNER ITERATIONS.
    ------------------------------------------------

 OUTPUT CONTROL FOR STRESS PERIOD   12   TIME STEP   16
    SAVE HEAD FOR ALL LAYERS
    SAVE BUDGET
 UBDSV1 SAVING "         STORAGE" ON UNIT  52 AT TIME STEP 16, STRESS PERIOD  12
 UBDSV2 SAVING "   CONSTANT HEAD" ON UNIT  52 AT TIME STEP 16, STRESS PERIOD  12
 UBDSV1 SAVING "FLOW RIGHT FACE " ON UNIT  52 AT TIME STEP 16, STRESS PERIOD  12
 UBDSV1 SAVING "FLOW FRONT FACE " ON UNIT  52 AT TIME STEP 16, STRESS PERIOD  12
 UBDSV4 SAVING "  STREAM LEAKAGE" ON UNIT  52 AT TIME STEP 16, STRESS PERIOD  12



 UBUDSV SAVING "           GW ET" ON UNIT 52 AT TIME STEP 16, STRESS PERIOD   12
 UBUDSV SAVING "    UZF RECHARGE" ON UNIT 52 AT TIME STEP 16, STRESS PERIOD   12
 UBUDSV SAVING " SURFACE LEAKAGE" ON UNIT 52 AT TIME STEP 16, STRESS PERIOD   12
 UBUDSV SAVING "       HORT+DUNN" ON UNIT 52 AT TIME STEP 16, STRESS PERIOD   12
 UBUDSV SAVING "  STORAGE CHANGE" ON UNIT 52 AT TIME STEP 16, STRESS PERIOD   12
 UBDSV4 SAVING "           AG WE" ON UNIT  52 AT TIME STEP 16, STRESS PERIOD  12

 HEAD WILL BE SAVED ON UNIT   51 AT END OF TIME STEP   16, STRESS PERIOD   12
 
 SOLVING FOR HEAD 

    ------------------------------------------------
       NWT REQUIRED            1 OUTER ITERATIONS 
       AND A TOTAL OF          1 INNER ITERATIONS.
    ------------------------------------------------

 OUTPUT CONTROL FOR STRESS PERIOD   12   TIME STEP   17
    SAVE HEAD FOR ALL LAYERS
    SAVE BUDGET
 UBDSV1 SAVING "         STORAGE" ON UNIT  52 AT TIME STEP 17, STRESS PERIOD  12
 UBDSV2 SAVING "   CONSTANT HEAD" ON UNIT  52 AT TIME STEP 17, STRESS PERIOD  12
 UBDSV1 SAVING "FLOW RIGHT FACE " ON UNIT  52 AT TIME STEP 17, STRESS PERIOD  12
 UBDSV1 SAVING "FLOW FRONT FACE " ON UNIT  52 AT TIME STEP 17, STRESS PERIOD  12
 UBDSV4 SAVING "  STREAM LEAKAGE" ON UNIT  52 AT TIME STEP 17, STRESS PERIOD  12



 UBUDSV SAVING "           GW ET" ON UNIT 52 AT TIME STEP 17, STRESS PERIOD   12
 UBUDSV SAVING "    UZF RECHARGE" ON UNIT 52 AT TIME STEP 17, STRESS PERIOD   12
 UBUDSV SAVING " SURFACE LEAKAGE" ON UNIT 52 AT TIME STEP 17, STRESS PERIOD   12
 UBUDSV SAVING "       HORT+DUNN" ON UNIT 52 AT TIME STEP 17, STRESS PERIOD   12
 UBUDSV SAVING "  STORAGE CHANGE" ON UNIT 52 AT TIME STEP 17, STRESS PERIOD   12
 UBDSV4 SAVING "           AG WE" ON UNIT  52 AT TIME STEP 17, STRESS PERIOD  12

 HEAD WILL BE SAVED ON UNIT   51 AT END OF TIME STEP   17, STRESS PERIOD   12
 
 SOLVING FOR HEAD 

    ------------------------------------------------
       NWT REQUIRED            1 OUTER ITERATIONS 
       AND A TOTAL OF          1 INNER ITERATIONS.
    ------------------------------------------------

 OUTPUT CONTROL FOR STRESS PERIOD   12   TIME STEP   18
    SAVE HEAD FOR ALL LAYERS
    SAVE BUDGET
 UBDSV1 SAVING "         STORAGE" ON UNIT  52 AT TIME STEP 18, STRESS PERIOD  12
 UBDSV2 SAVING "   CONSTANT HEAD" ON UNIT  52 AT TIME STEP 18, STRESS PERIOD  12
 UBDSV1 SAVING "FLOW RIGHT FACE " ON UNIT  52 AT TIME STEP 18, STRESS PERIOD  12
 UBDSV1 SAVING "FLOW FRONT FACE " ON UNIT  52 AT TIME STEP 18, STRESS PERIOD  12
 UBDSV4 SAVING "  STREAM LEAKAGE" ON UNIT  52 AT TIME STEP 18, STRESS PERIOD  12



 UBUDSV SAVING "           GW ET" ON UNIT 52 AT TIME STEP 18, STRESS PERIOD   12
 UBUDSV SAVING "    UZF RECHARGE" ON UNIT 52 AT TIME STEP 18, STRESS PERIOD   12
 UBUDSV SAVING " SURFACE LEAKAGE" ON UNIT 52 AT TIME STEP 18, STRESS PERIOD   12
 UBUDSV SAVING "       HORT+DUNN" ON UNIT 52 AT TIME STEP 18, STRESS PERIOD   12
 UBUDSV SAVING "  STORAGE CHANGE" ON UNIT 52 AT TIME STEP 18, STRESS PERIOD   12
 UBDSV4 SAVING "           AG WE" ON UNIT  52 AT TIME STEP 18, STRESS PERIOD  12

 HEAD WILL BE SAVED ON UNIT   51 AT END OF TIME STEP   18, STRESS PERIOD   12
 
 SOLVING FOR HEAD 

    ------------------------------------------------
       NWT REQUIRED            1 OUTER ITERATIONS 
       AND A TOTAL OF          1 INNER ITERATIONS.
    ------------------------------------------------

 OUTPUT CONTROL FOR STRESS PERIOD   12   TIME STEP   19
    SAVE HEAD FOR ALL LAYERS
    SAVE BUDGET
 UBDSV1 SAVING "         STORAGE" ON UNIT  52 AT TIME STEP 19, STRESS PERIOD  12
 UBDSV2 SAVING "   CONSTANT HEAD" ON UNIT  52 AT TIME STEP 19, STRESS PERIOD  12
 UBDSV1 SAVING "FLOW RIGHT FACE " ON UNIT  52 AT TIME STEP 19, STRESS PERIOD  12
 UBDSV1 SAVING "FLOW FRONT FACE " ON UNIT  52 AT TIME STEP 19, STRESS PERIOD  12
 UBDSV4 SAVING "  STREAM LEAKAGE" ON UNIT  52 AT TIME STEP 19, STRESS PERIOD  12



 UBUDSV SAVING "           GW ET" ON UNIT 52 AT TIME STEP 19, STRESS PERIOD   12
 UBUDSV SAVING "    UZF RECHARGE" ON UNIT 52 AT TIME STEP 19, STRESS PERIOD   12
 UBUDSV SAVING " SURFACE LEAKAGE" ON UNIT 52 AT TIME STEP 19, STRESS PERIOD   12
 UBUDSV SAVING "       HORT+DUNN" ON UNIT 52 AT TIME STEP 19, STRESS PERIOD   12
 UBUDSV SAVING "  STORAGE CHANGE" ON UNIT 52 AT TIME STEP 19, STRESS PERIOD   12
 UBDSV4 SAVING "           AG WE" ON UNIT  52 AT TIME STEP 19, STRESS PERIOD  12

 HEAD WILL BE SAVED ON UNIT   51 AT END OF TIME STEP   19, STRESS PERIOD   12
 
 SOLVING FOR HEAD 

    ------------------------------------------------
       NWT REQUIRED            1 OUTER ITERATIONS 
       AND A TOTAL OF          1 INNER ITERATIONS.
    ------------------------------------------------

 OUTPUT CONTROL FOR STRESS PERIOD   12   TIME STEP   20
    SAVE HEAD FOR ALL LAYERS
    SAVE BUDGET
 UBDSV1 SAVING "         STORAGE" ON UNIT  52 AT TIME STEP 20, STRESS PERIOD  12
 UBDSV2 SAVING "   CONSTANT HEAD" ON UNIT  52 AT TIME STEP 20, STRESS PERIOD  12
 UBDSV1 SAVING "FLOW RIGHT FACE " ON UNIT  52 AT TIME STEP 20, STRESS PERIOD  12
 UBDSV1 SAVING "FLOW FRONT FACE " ON UNIT  52 AT TIME STEP 20, STRESS PERIOD  12
 UBDSV4 SAVING "  STREAM LEAKAGE" ON UNIT  52 AT TIME STEP 20, STRESS PERIOD  12



 UBUDSV SAVING "           GW ET" ON UNIT 52 AT TIME STEP 20, STRESS PERIOD   12
 UBUDSV SAVING "    UZF RECHARGE" ON UNIT 52 AT TIME STEP 20, STRESS PERIOD   12
 UBUDSV SAVING " SURFACE LEAKAGE" ON UNIT 52 AT TIME STEP 20, STRESS PERIOD   12
 UBUDSV SAVING "       HORT+DUNN" ON UNIT 52 AT TIME STEP 20, STRESS PERIOD   12
 UBUDSV SAVING "  STORAGE CHANGE" ON UNIT 52 AT TIME STEP 20, STRESS PERIOD   12
 UBDSV4 SAVING "           AG WE" ON UNIT  52 AT TIME STEP 20, STRESS PERIOD  12

 HEAD WILL BE SAVED ON UNIT   51 AT END OF TIME STEP   20, STRESS PERIOD   12
 
 SOLVING FOR HEAD 

    ------------------------------------------------
       NWT REQUIRED            1 OUTER ITERATIONS 
       AND A TOTAL OF          1 INNER ITERATIONS.
    ------------------------------------------------

 OUTPUT CONTROL FOR STRESS PERIOD   12   TIME STEP   21
    SAVE HEAD FOR ALL LAYERS
    SAVE BUDGET
 UBDSV1 SAVING "         STORAGE" ON UNIT  52 AT TIME STEP 21, STRESS PERIOD  12
 UBDSV2 SAVING "   CONSTANT HEAD" ON UNIT  52 AT TIME STEP 21, STRESS PERIOD  12
 UBDSV1 SAVING "FLOW RIGHT FACE " ON UNIT  52 AT TIME STEP 21, STRESS PERIOD  12
 UBDSV1 SAVING "FLOW FRONT FACE " ON UNIT  52 AT TIME STEP 21, STRESS PERIOD  12
 UBDSV4 SAVING "  STREAM LEAKAGE" ON UNIT  52 AT TIME STEP 21, STRESS PERIOD  12



 UBUDSV SAVING "           GW ET" ON UNIT 52 AT TIME STEP 21, STRESS PERIOD   12
 UBUDSV SAVING "    UZF RECHARGE" ON UNIT 52 AT TIME STEP 21, STRESS PERIOD   12
 UBUDSV SAVING " SURFACE LEAKAGE" ON UNIT 52 AT TIME STEP 21, STRESS PERIOD   12
 UBUDSV SAVING "       HORT+DUNN" ON UNIT 52 AT TIME STEP 21, STRESS PERIOD   12
 UBUDSV SAVING "  STORAGE CHANGE" ON UNIT 52 AT TIME STEP 21, STRESS PERIOD   12
 UBDSV4 SAVING "           AG WE" ON UNIT  52 AT TIME STEP 21, STRESS PERIOD  12

 HEAD WILL BE SAVED ON UNIT   51 AT END OF TIME STEP   21, STRESS PERIOD   12
 
 SOLVING FOR HEAD 

    ------------------------------------------------
       NWT REQUIRED            1 OUTER ITERATIONS 
       AND A TOTAL OF          1 INNER ITERATIONS.
    ------------------------------------------------

 OUTPUT CONTROL FOR STRESS PERIOD   12   TIME STEP   22
    SAVE HEAD FOR ALL LAYERS
    SAVE BUDGET
 UBDSV1 SAVING "         STORAGE" ON UNIT  52 AT TIME STEP 22, STRESS PERIOD  12
 UBDSV2 SAVING "   CONSTANT HEAD" ON UNIT  52 AT TIME STEP 22, STRESS PERIOD  12
 UBDSV1 SAVING "FLOW RIGHT FACE " ON UNIT  52 AT TIME STEP 22, STRESS PERIOD  12
 UBDSV1 SAVING "FLOW FRONT FACE " ON UNIT  52 AT TIME STEP 22, STRESS PERIOD  12
 UBDSV4 SAVING "  STREAM LEAKAGE" ON UNIT  52 AT TIME STEP 22, STRESS PERIOD  12



 UBUDSV SAVING "           GW ET" ON UNIT 52 AT TIME STEP 22, STRESS PERIOD   12
 UBUDSV SAVING "    UZF RECHARGE" ON UNIT 52 AT TIME STEP 22, STRESS PERIOD   12
 UBUDSV SAVING " SURFACE LEAKAGE" ON UNIT 52 AT TIME STEP 22, STRESS PERIOD   12
 UBUDSV SAVING "       HORT+DUNN" ON UNIT 52 AT TIME STEP 22, STRESS PERIOD   12
 UBUDSV SAVING "  STORAGE CHANGE" ON UNIT 52 AT TIME STEP 22, STRESS PERIOD   12
 UBDSV4 SAVING "           AG WE" ON UNIT  52 AT TIME STEP 22, STRESS PERIOD  12

 HEAD WILL BE SAVED ON UNIT   51 AT END OF TIME STEP   22, STRESS PERIOD   12
 
 SOLVING FOR HEAD 

    ------------------------------------------------
       NWT REQUIRED            1 OUTER ITERATIONS 
       AND A TOTAL OF          1 INNER ITERATIONS.
    ------------------------------------------------

 OUTPUT CONTROL FOR STRESS PERIOD   12   TIME STEP   23
    SAVE HEAD FOR ALL LAYERS
    SAVE BUDGET
 UBDSV1 SAVING "         STORAGE" ON UNIT  52 AT TIME STEP 23, STRESS PERIOD  12
 UBDSV2 SAVING "   CONSTANT HEAD" ON UNIT  52 AT TIME STEP 23, STRESS PERIOD  12
 UBDSV1 SAVING "FLOW RIGHT FACE " ON UNIT  52 AT TIME STEP 23, STRESS PERIOD  12
 UBDSV1 SAVING "FLOW FRONT FACE " ON UNIT  52 AT TIME STEP 23, STRESS PERIOD  12
 UBDSV4 SAVING "  STREAM LEAKAGE" ON UNIT  52 AT TIME STEP 23, STRESS PERIOD  12



 UBUDSV SAVING "           GW ET" ON UNIT 52 AT TIME STEP 23, STRESS PERIOD   12
 UBUDSV SAVING "    UZF RECHARGE" ON UNIT 52 AT TIME STEP 23, STRESS PERIOD   12
 UBUDSV SAVING " SURFACE LEAKAGE" ON UNIT 52 AT TIME STEP 23, STRESS PERIOD   12
 UBUDSV SAVING "       HORT+DUNN" ON UNIT 52 AT TIME STEP 23, STRESS PERIOD   12
 UBUDSV SAVING "  STORAGE CHANGE" ON UNIT 52 AT TIME STEP 23, STRESS PERIOD   12
 UBDSV4 SAVING "           AG WE" ON UNIT  52 AT TIME STEP 23, STRESS PERIOD  12

 HEAD WILL BE SAVED ON UNIT   51 AT END OF TIME STEP   23, STRESS PERIOD   12
 
 SOLVING FOR HEAD 

    ------------------------------------------------
       NWT REQUIRED            1 OUTER ITERATIONS 
       AND A TOTAL OF          1 INNER ITERATIONS.
    ------------------------------------------------

 OUTPUT CONTROL FOR STRESS PERIOD   12   TIME STEP   24
    SAVE HEAD FOR ALL LAYERS
    SAVE BUDGET
 UBDSV1 SAVING "         STORAGE" ON UNIT  52 AT TIME STEP 24, STRESS PERIOD  12
 UBDSV2 SAVING "   CONSTANT HEAD" ON UNIT  52 AT TIME STEP 24, STRESS PERIOD  12
 UBDSV1 SAVING "FLOW RIGHT FACE " ON UNIT  52 AT TIME STEP 24, STRESS PERIOD  12
 UBDSV1 SAVING "FLOW FRONT FACE " ON UNIT  52 AT TIME STEP 24, STRESS PERIOD  12
 UBDSV4 SAVING "  STREAM LEAKAGE" ON UNIT  52 AT TIME STEP 24, STRESS PERIOD  12



 UBUDSV SAVING "           GW ET" ON UNIT 52 AT TIME STEP 24, STRESS PERIOD   12
 UBUDSV SAVING "    UZF RECHARGE" ON UNIT 52 AT TIME STEP 24, STRESS PERIOD   12
 UBUDSV SAVING " SURFACE LEAKAGE" ON UNIT 52 AT TIME STEP 24, STRESS PERIOD   12
 UBUDSV SAVING "       HORT+DUNN" ON UNIT 52 AT TIME STEP 24, STRESS PERIOD   12
 UBUDSV SAVING "  STORAGE CHANGE" ON UNIT 52 AT TIME STEP 24, STRESS PERIOD   12
 UBDSV4 SAVING "           AG WE" ON UNIT  52 AT TIME STEP 24, STRESS PERIOD  12

 HEAD WILL BE SAVED ON UNIT   51 AT END OF TIME STEP   24, STRESS PERIOD   12
 
 SOLVING FOR HEAD 

    ------------------------------------------------
       NWT REQUIRED            1 OUTER ITERATIONS 
       AND A TOTAL OF          1 INNER ITERATIONS.
    ------------------------------------------------

 OUTPUT CONTROL FOR STRESS PERIOD   12   TIME STEP   25
    SAVE HEAD FOR ALL LAYERS
    SAVE BUDGET
 UBDSV1 SAVING "         STORAGE" ON UNIT  52 AT TIME STEP 25, STRESS PERIOD  12
 UBDSV2 SAVING "   CONSTANT HEAD" ON UNIT  52 AT TIME STEP 25, STRESS PERIOD  12
 UBDSV1 SAVING "FLOW RIGHT FACE " ON UNIT  52 AT TIME STEP 25, STRESS PERIOD  12
 UBDSV1 SAVING "FLOW FRONT FACE " ON UNIT  52 AT TIME STEP 25, STRESS PERIOD  12
 UBDSV4 SAVING "  STREAM LEAKAGE" ON UNIT  52 AT TIME STEP 25, STRESS PERIOD  12



 UBUDSV SAVING "           GW ET" ON UNIT 52 AT TIME STEP 25, STRESS PERIOD   12
 UBUDSV SAVING "    UZF RECHARGE" ON UNIT 52 AT TIME STEP 25, STRESS PERIOD   12
 UBUDSV SAVING " SURFACE LEAKAGE" ON UNIT 52 AT TIME STEP 25, STRESS PERIOD   12
 UBUDSV SAVING "       HORT+DUNN" ON UNIT 52 AT TIME STEP 25, STRESS PERIOD   12
 UBUDSV SAVING "  STORAGE CHANGE" ON UNIT 52 AT TIME STEP 25, STRESS PERIOD   12
 UBDSV4 SAVING "           AG WE" ON UNIT  52 AT TIME STEP 25, STRESS PERIOD  12

 HEAD WILL BE SAVED ON UNIT   51 AT END OF TIME STEP   25, STRESS PERIOD   12
 
 SOLVING FOR HEAD 

    ------------------------------------------------
       NWT REQUIRED            1 OUTER ITERATIONS 
       AND A TOTAL OF          1 INNER ITERATIONS.
    ------------------------------------------------

 OUTPUT CONTROL FOR STRESS PERIOD   12   TIME STEP   26
    SAVE HEAD FOR ALL LAYERS
    SAVE BUDGET
 UBDSV1 SAVING "         STORAGE" ON UNIT  52 AT TIME STEP 26, STRESS PERIOD  12
 UBDSV2 SAVING "   CONSTANT HEAD" ON UNIT  52 AT TIME STEP 26, STRESS PERIOD  12
 UBDSV1 SAVING "FLOW RIGHT FACE " ON UNIT  52 AT TIME STEP 26, STRESS PERIOD  12
 UBDSV1 SAVING "FLOW FRONT FACE " ON UNIT  52 AT TIME STEP 26, STRESS PERIOD  12
 UBDSV4 SAVING "  STREAM LEAKAGE" ON UNIT  52 AT TIME STEP 26, STRESS PERIOD  12



 UBUDSV SAVING "           GW ET" ON UNIT 52 AT TIME STEP 26, STRESS PERIOD   12
 UBUDSV SAVING "    UZF RECHARGE" ON UNIT 52 AT TIME STEP 26, STRESS PERIOD   12
 UBUDSV SAVING " SURFACE LEAKAGE" ON UNIT 52 AT TIME STEP 26, STRESS PERIOD   12
 UBUDSV SAVING "       HORT+DUNN" ON UNIT 52 AT TIME STEP 26, STRESS PERIOD   12
 UBUDSV SAVING "  STORAGE CHANGE" ON UNIT 52 AT TIME STEP 26, STRESS PERIOD   12
 UBDSV4 SAVING "           AG WE" ON UNIT  52 AT TIME STEP 26, STRESS PERIOD  12

 HEAD WILL BE SAVED ON UNIT   51 AT END OF TIME STEP   26, STRESS PERIOD   12
 
 SOLVING FOR HEAD 

    ------------------------------------------------
       NWT REQUIRED            1 OUTER ITERATIONS 
       AND A TOTAL OF          1 INNER ITERATIONS.
    ------------------------------------------------

 OUTPUT CONTROL FOR STRESS PERIOD   12   TIME STEP   27
    SAVE HEAD FOR ALL LAYERS
    SAVE BUDGET
 UBDSV1 SAVING "         STORAGE" ON UNIT  52 AT TIME STEP 27, STRESS PERIOD  12
 UBDSV2 SAVING "   CONSTANT HEAD" ON UNIT  52 AT TIME STEP 27, STRESS PERIOD  12
 UBDSV1 SAVING "FLOW RIGHT FACE " ON UNIT  52 AT TIME STEP 27, STRESS PERIOD  12
 UBDSV1 SAVING "FLOW FRONT FACE " ON UNIT  52 AT TIME STEP 27, STRESS PERIOD  12
 UBDSV4 SAVING "  STREAM LEAKAGE" ON UNIT  52 AT TIME STEP 27, STRESS PERIOD  12



 UBUDSV SAVING "           GW ET" ON UNIT 52 AT TIME STEP 27, STRESS PERIOD   12
 UBUDSV SAVING "    UZF RECHARGE" ON UNIT 52 AT TIME STEP 27, STRESS PERIOD   12
 UBUDSV SAVING " SURFACE LEAKAGE" ON UNIT 52 AT TIME STEP 27, STRESS PERIOD   12
 UBUDSV SAVING "       HORT+DUNN" ON UNIT 52 AT TIME STEP 27, STRESS PERIOD   12
 UBUDSV SAVING "  STORAGE CHANGE" ON UNIT 52 AT TIME STEP 27, STRESS PERIOD   12
 UBDSV4 SAVING "           AG WE" ON UNIT  52 AT TIME STEP 27, STRESS PERIOD  12

 HEAD WILL BE SAVED ON UNIT   51 AT END OF TIME STEP   27, STRESS PERIOD   12
 
 SOLVING FOR HEAD 

    ------------------------------------------------
       NWT REQUIRED            1 OUTER ITERATIONS 
       AND A TOTAL OF          1 INNER ITERATIONS.
    ------------------------------------------------

 OUTPUT CONTROL FOR STRESS PERIOD   12   TIME STEP   28
    SAVE HEAD FOR ALL LAYERS
    SAVE BUDGET
 UBDSV1 SAVING "         STORAGE" ON UNIT  52 AT TIME STEP 28, STRESS PERIOD  12
 UBDSV2 SAVING "   CONSTANT HEAD" ON UNIT  52 AT TIME STEP 28, STRESS PERIOD  12
 UBDSV1 SAVING "FLOW RIGHT FACE " ON UNIT  52 AT TIME STEP 28, STRESS PERIOD  12
 UBDSV1 SAVING "FLOW FRONT FACE " ON UNIT  52 AT TIME STEP 28, STRESS PERIOD  12
 UBDSV4 SAVING "  STREAM LEAKAGE" ON UNIT  52 AT TIME STEP 28, STRESS PERIOD  12



 UBUDSV SAVING "           GW ET" ON UNIT 52 AT TIME STEP 28, STRESS PERIOD   12
 UBUDSV SAVING "    UZF RECHARGE" ON UNIT 52 AT TIME STEP 28, STRESS PERIOD   12
 UBUDSV SAVING " SURFACE LEAKAGE" ON UNIT 52 AT TIME STEP 28, STRESS PERIOD   12
 UBUDSV SAVING "       HORT+DUNN" ON UNIT 52 AT TIME STEP 28, STRESS PERIOD   12
 UBUDSV SAVING "  STORAGE CHANGE" ON UNIT 52 AT TIME STEP 28, STRESS PERIOD   12
 UBDSV4 SAVING "           AG WE" ON UNIT  52 AT TIME STEP 28, STRESS PERIOD  12

 HEAD WILL BE SAVED ON UNIT   51 AT END OF TIME STEP   28, STRESS PERIOD   12
 
 SOLVING FOR HEAD 

    ------------------------------------------------
       NWT REQUIRED            1 OUTER ITERATIONS 
       AND A TOTAL OF          1 INNER ITERATIONS.
    ------------------------------------------------

 OUTPUT CONTROL FOR STRESS PERIOD   12   TIME STEP   29
    SAVE HEAD FOR ALL LAYERS
    SAVE BUDGET
 UBDSV1 SAVING "         STORAGE" ON UNIT  52 AT TIME STEP 29, STRESS PERIOD  12
 UBDSV2 SAVING "   CONSTANT HEAD" ON UNIT  52 AT TIME STEP 29, STRESS PERIOD  12
 UBDSV1 SAVING "FLOW RIGHT FACE " ON UNIT  52 AT TIME STEP 29, STRESS PERIOD  12
 UBDSV1 SAVING "FLOW FRONT FACE " ON UNIT  52 AT TIME STEP 29, STRESS PERIOD  12
 UBDSV4 SAVING "  STREAM LEAKAGE" ON UNIT  52 AT TIME STEP 29, STRESS PERIOD  12



 UBUDSV SAVING "           GW ET" ON UNIT 52 AT TIME STEP 29, STRESS PERIOD   12
 UBUDSV SAVING "    UZF RECHARGE" ON UNIT 52 AT TIME STEP 29, STRESS PERIOD   12
 UBUDSV SAVING " SURFACE LEAKAGE" ON UNIT 52 AT TIME STEP 29, STRESS PERIOD   12
 UBUDSV SAVING "       HORT+DUNN" ON UNIT 52 AT TIME STEP 29, STRESS PERIOD   12
 UBUDSV SAVING "  STORAGE CHANGE" ON UNIT 52 AT TIME STEP 29, STRESS PERIOD   12
 UBDSV4 SAVING "           AG WE" ON UNIT  52 AT TIME STEP 29, STRESS PERIOD  12

 HEAD WILL BE SAVED ON UNIT   51 AT END OF TIME STEP   29, STRESS PERIOD   12
 
 SOLVING FOR HEAD 

    ------------------------------------------------
       NWT REQUIRED            1 OUTER ITERATIONS 
       AND A TOTAL OF          1 INNER ITERATIONS.
    ------------------------------------------------

 OUTPUT CONTROL FOR STRESS PERIOD   12   TIME STEP   30
    SAVE HEAD FOR ALL LAYERS
    SAVE BUDGET
 UBDSV1 SAVING "         STORAGE" ON UNIT  52 AT TIME STEP 30, STRESS PERIOD  12
 UBDSV2 SAVING "   CONSTANT HEAD" ON UNIT  52 AT TIME STEP 30, STRESS PERIOD  12
 UBDSV1 SAVING "FLOW RIGHT FACE " ON UNIT  52 AT TIME STEP 30, STRESS PERIOD  12
 UBDSV1 SAVING "FLOW FRONT FACE " ON UNIT  52 AT TIME STEP 30, STRESS PERIOD  12
 UBDSV4 SAVING "  STREAM LEAKAGE" ON UNIT  52 AT TIME STEP 30, STRESS PERIOD  12



 UBUDSV SAVING "           GW ET" ON UNIT 52 AT TIME STEP 30, STRESS PERIOD   12
 UBUDSV SAVING "    UZF RECHARGE" ON UNIT 52 AT TIME STEP 30, STRESS PERIOD   12
 UBUDSV SAVING " SURFACE LEAKAGE" ON UNIT 52 AT TIME STEP 30, STRESS PERIOD   12
 UBUDSV SAVING "       HORT+DUNN" ON UNIT 52 AT TIME STEP 30, STRESS PERIOD   12
 UBUDSV SAVING "  STORAGE CHANGE" ON UNIT 52 AT TIME STEP 30, STRESS PERIOD   12
 UBDSV4 SAVING "           AG WE" ON UNIT  52 AT TIME STEP 30, STRESS PERIOD  12

 HEAD WILL BE SAVED ON UNIT   51 AT END OF TIME STEP   30, STRESS PERIOD   12
 
 SOLVING FOR HEAD 

    ------------------------------------------------
       NWT REQUIRED            1 OUTER ITERATIONS 
       AND A TOTAL OF          1 INNER ITERATIONS.
    ------------------------------------------------

 OUTPUT CONTROL FOR STRESS PERIOD   12   TIME STEP   31
    SAVE HEAD FOR ALL LAYERS
    SAVE BUDGET
 UBDSV1 SAVING "         STORAGE" ON UNIT  52 AT TIME STEP 31, STRESS PERIOD  12
 UBDSV2 SAVING "   CONSTANT HEAD" ON UNIT  52 AT TIME STEP 31, STRESS PERIOD  12
 UBDSV1 SAVING "FLOW RIGHT FACE " ON UNIT  52 AT TIME STEP 31, STRESS PERIOD  12
 UBDSV1 SAVING "FLOW FRONT FACE " ON UNIT  52 AT TIME STEP 31, STRESS PERIOD  12
 UBDSV4 SAVING "  STREAM LEAKAGE" ON UNIT  52 AT TIME STEP 31, STRESS PERIOD  12



 UBUDSV SAVING "           GW ET" ON UNIT 52 AT TIME STEP 31, STRESS PERIOD   12
 UBUDSV SAVING "    UZF RECHARGE" ON UNIT 52 AT TIME STEP 31, STRESS PERIOD   12
 UBUDSV SAVING " SURFACE LEAKAGE" ON UNIT 52 AT TIME STEP 31, STRESS PERIOD   12
 UBUDSV SAVING "       HORT+DUNN" ON UNIT 52 AT TIME STEP 31, STRESS PERIOD   12
 UBUDSV SAVING "  STORAGE CHANGE" ON UNIT 52 AT TIME STEP 31, STRESS PERIOD   12


UNSATURATED ZONE PACKAGE VOLUMETRIC BUDGET FOR  TIME STEP    31 STRESS PERIOD   12
  ------------------------------------------------------------------------------



     CUMULATIVE VOLUMES      L**3       RATES FOR THIS TIME STEP      L**3/T
     ------------------                 ------------------------

           IN:                                      IN:
           ---                                      ---
        INFILTRATION =      196259.3670          INFILTRATION =        1033.7850

          OUT:                                     OUT:
          ----                                     ----
              UZF ET =      172580.8837                UZF ET =         283.9095
        UZF RECHARGE =       10459.0229          UZF RECHARGE =           5.9394

            IN - OUT =       13219.4605              IN - OUT =         743.9361

          STORAGE:                                 STORAGE:
          --------                                 --------
      STORAGE CHANGE =       13219.1949        STORAGE CHANGE =         743.9361

 PERCENT DISCREPANCY IS DIFFERENCE BETWEEN IN-OUT MINUS CHANGE IN STORAGE
 DIVIDED BY THE AVERAGE OF IN AND OUT TIMES 100

 PERCENT DISCREPANCY =           0.00     PERCENT DISCREPANCY =           0.00






 UBDSV4 SAVING "           AG WE" ON UNIT  52 AT TIME STEP 31, STRESS PERIOD  12
1
  VOLUMETRIC BUDGET FOR AGRICULTURAL FIELDS AT TIME STEP   31, STRESS PERIOD  12
  ------------------------------------------------------------------------------

     CUMULATIVE VOLUMES      L**3       RATES FOR THIS TIME STEP      L**3/T
     ------------------                 ------------------------

           IN:                                      IN:
           ---                                      ---
               AG WELLS  =        3212.4246                 AG WELLS  =           0.0000
      DIVERSION SEGMENTS =        5783.1782        DIVERSION SEGMENTS =       1.4657E-02
           GW IRRIGATION =           0.0000             GW IRRIGATION =           0.0000
           SW IRRIGATION =           0.0000             SW IRRIGATION =           0.0000
        SYSTEM LOSSES GW =           0.0000          SYSTEM LOSSES GW =           0.0000
        SYSTEM LOSSES SW =           0.0000          SYSTEM LOSSES SW =           0.0000

                TOTAL IN =        8995.6025                  TOTAL IN =       1.4657E-02

          OUT:                                     OUT:
          ----                                     ----
               AG WELLS  =           0.0000                 AG WELLS  =           0.0000
      DIVERSION SEGMENTS =           0.0000        DIVERSION SEGMENTS =           0.0000
           GW IRRIGATION =        3212.4246             GW IRRIGATION =           0.0000
           SW IRRIGATION =        5783.1782             SW IRRIGATION =       1.4657E-02
        SYSTEM LOSSES GW =           0.0000          SYSTEM LOSSES GW =           0.0000
        SYSTEM LOSSES SW =           0.0000          SYSTEM LOSSES SW =           0.0000

               TOTAL OUT =        8995.6025                 TOTAL OUT =       1.4657E-02

                IN - OUT =           0.0000                  IN - OUT =           0.0000

     PERCENT DISCREPANCY =           0.00         PERCENT DISCREPANCY =           0.00




 HEAD WILL BE SAVED ON UNIT   51 AT END OF TIME STEP   31, STRESS PERIOD   12
1
  VOLUMETRIC BUDGET FOR ENTIRE MODEL AT END OF TIME STEP   31, STRESS PERIOD  12
  ------------------------------------------------------------------------------

     CUMULATIVE VOLUMES      L**3       RATES FOR THIS TIME STEP      L**3/T
     ------------------                 ------------------------

           IN:                                      IN:
           ---                                      ---
             STORAGE     =         994.2090               STORAGE     =           0.0000
       CONSTANT HEAD     =           0.0000         CONSTANT HEAD     =           0.0000
      STREAM LEAKAGE     =          27.7484        STREAM LEAKAGE     =       7.6023E-02
        UZF RECHARGE     =       10459.0322          UZF RECHARGE     =           5.9394
               GW ET     =           0.0000                 GW ET     =           0.0000
     SURFACE LEAKAGE     =           0.0000       SURFACE LEAKAGE     =           0.0000
           AG WELLS      =           0.0000             AG WELLS      =           0.0000

                TOTAL IN =       11480.9893                  TOTAL IN =           6.0154

          OUT:                                     OUT:
          ----                                     ----
             STORAGE     =        7465.2998               STORAGE     =           5.7654
       CONSTANT HEAD     =           0.0000         CONSTANT HEAD     =           0.0000
      STREAM LEAKAGE     =           0.0000        STREAM LEAKAGE     =           0.0000
        UZF RECHARGE     =           0.0000          UZF RECHARGE     =           0.0000
               GW ET     =           0.0000                 GW ET     =           0.0000
     SURFACE LEAKAGE     =           0.0000       SURFACE LEAKAGE     =           0.0000
           AG WELLS      =        3212.4246             AG WELLS      =           0.0000

               TOTAL OUT =       10677.7246                 TOTAL OUT =           5.7654

                IN - OUT =         803.2646                  IN - OUT =           0.2500

     PERCENT DISCREPANCY =           7.25         PERCENT DISCREPANCY =           4.24






         TIME SUMMARY AT END OF TIME STEP   31 IN STRESS PERIOD   12
                    SECONDS     MINUTES      HOURS       DAYS        YEARS
                    -----------------------------------------------------------
   TIME STEP LENGTH  86400.      1440.0      24.000      1.0000     2.73785E-03
 STRESS PERIOD TIME 2.67840E+06  44640.      744.00      31.000     8.48734E-02
         TOTAL TIME 3.15360E+07 5.25600E+05  8760.0      365.00     0.99932    
1

 Run end date and time (yyyy/mm/dd hh:mm:ss): 2022/07/26 14:27:37
 Elapsed run time:  0.594 Seconds

